9
Name: Molecule_32 Comments: 
C 	 1.28406 	 0.15062 	 0.00000
C 	 0.00000 	 0.47238 	 0.00000
H 	 1.60713 	 -0.88396 	 0.00000
H 	 -0.27557 	 1.52264 	 0.00000
H 	 2.05663 	 0.90758 	 0.00000
C 	 -1.13148 	 -0.50430 	 0.00000
H 	 -0.77011 	 -1.53228 	 0.00000
H 	 -1.76677 	 -0.36310 	 0.87673
H 	 -1.76677 	 -0.36310 	 -0.87673
