26
Name: Molecule_10 Comments: 
C 	 0.00000 	 0.00000 	 0.78827
C 	 0.00000 	 0.00000 	 -0.78827
C 	 0.21657 	 -1.41442 	 -1.34471
C 	 -1.33321 	 0.51965 	 -1.34471
C 	 1.11664 	 0.89476 	 -1.34471
H 	 0.07866 	 -1.40859 	 -2.42719
H 	 1.22432 	 -1.77815 	 -1.14582
H 	 -0.49103 	 -2.13288 	 -0.92963
H 	 -1.25920 	 0.63617 	 -2.42719
H 	 -2.15209 	 -0.17122 	 -1.14582
H 	 -1.60161 	 1.49168 	 -0.92963
H 	 1.18054 	 0.77242 	 -2.42719
H 	 0.92776 	 1.94937 	 -1.14582
H 	 2.09264 	 0.64120 	 -0.92963
C 	 0.11542 	 1.42624 	 1.34471
C 	 -1.29287 	 -0.61316 	 1.34471
C 	 1.17745 	 -0.81307 	 1.34471
H 	 -0.02173 	 1.41061 	 2.42719
H 	 1.09475 	 1.86073 	 1.14582
H 	 -0.64149 	 2.09255 	 0.92963
H 	 -1.21077 	 -0.72412 	 2.42719
H 	 -2.15882 	 0.01771 	 1.14582
H 	 -1.49146 	 -1.60182 	 0.92963
H 	 1.23249 	 -0.68649 	 2.42719
H 	 1.06407 	 -1.87844 	 1.14582
H 	 2.13294 	 -0.49073 	 0.92963
