17
Name: Molecule_6 Comments: 
C 	 -0.77362 	 -1.24560 	 0.43739
C 	 0.00000 	 0.00000 	 0.00000
C 	 0.47540 	 0.76553 	 1.23663
C 	 1.21043 	 -0.41912 	 -0.83697
C 	 -0.91221 	 0.89918 	 -0.83705
H 	 1.03151 	 1.66092 	 0.95226
H 	 -0.37037 	 1.07695 	 1.85269
H 	 1.12944 	 0.14547 	 1.85275
H 	 1.78120 	 0.45263 	 -1.16273
H 	 1.87912 	 -1.06282 	 -0.26224
H 	 0.89867 	 -0.96839 	 -1.72745
H 	 -0.38380 	 1.79724 	 -1.16280
H 	 -1.26632 	 0.37622 	 -1.72753
H 	 -1.78567 	 1.21326 	 -0.26237
H 	 -1.64431 	 -0.97432 	 1.03750
H 	 -0.14451 	 -1.90580 	 1.03756
H 	 -1.12496 	 -1.81136 	 -0.42766
