14
Name: Molecule_14 Comments: 
C 	 0.70144 	 1.65585 	 0.75774
C 	 0.70144 	 0.27110 	 0.12406
C 	 -0.70144 	 -0.27110 	 -0.12406
H 	 1.71528 	 2.02005 	 0.92440
H 	 0.18820 	 1.64454 	 1.72101
H 	 0.18820 	 2.37742 	 0.11949
H 	 1.24633 	 -0.42667 	 0.76619
H 	 1.24633 	 0.30090 	 -0.82374
C 	 -0.70144 	 -1.65585 	 -0.75774
H 	 -1.71528 	 -2.02005 	 -0.92440
H 	 -1.24633 	 -0.30090 	 0.82374
H 	 -1.24633 	 0.42667 	 -0.76619
H 	 -0.18820 	 -2.37742 	 -0.11949
H 	 -0.18820 	 -1.64454 	 -1.72101
