38
Name: Molecule_9 Comments: 
C 	 -0.80008 	 0.02193 	 -0.17253
C 	 0.70191 	 -0.02884 	 0.36785
C 	 0.77085 	 0.63181 	 1.75630
C 	 1.23971 	 -1.47124 	 0.58801
C 	 1.65581 	 0.71101 	 -0.60223
H 	 1.74116 	 0.45411 	 2.21849
H 	 0.62463 	 1.70971 	 1.71254
H 	 0.01985 	 0.21986 	 2.43081
C 	 1.41090 	 -2.40366 	 -0.60746
H 	 2.21884 	 -1.36302 	 1.05756
H 	 0.62869 	 -1.96896 	 1.34144
C 	 3.10392 	 0.86943 	 -0.14576
H 	 1.66128 	 0.19260 	 -1.56062
H 	 1.25851 	 1.70186 	 -0.80965
C 	 -0.86978 	 -0.16936 	 -1.69618
C 	 -1.61510 	 -1.11670 	 0.50037
C 	 -1.53085 	 1.34983 	 0.16636
H 	 -1.90931 	 -0.21316 	 -2.02173
H 	 -0.40534 	 0.65301 	 -2.23625
H 	 -0.38484 	 -1.08719 	 -2.02012
C 	 -3.12949 	 -1.12335 	 0.29844
H 	 -1.23279 	 -2.07212 	 0.14174
H 	 -1.42711 	 -1.09950 	 1.57612
C 	 -0.98505 	 2.68298 	 -0.34072
H 	 -2.53573 	 1.25424 	 -0.24692
H 	 -1.66758 	 1.41582 	 1.24802
H 	 1.94630 	 -3.30143 	 -0.29643
H 	 0.46097 	 -2.72741 	 -1.02971
H 	 1.99005 	 -1.94264 	 -1.40795
H 	 3.67185 	 1.40742 	 -0.90512
H 	 3.18340 	 1.43693 	 0.78122
H 	 3.59778 	 -0.09047 	 0.00570
H 	 -3.54515 	 -2.04689 	 0.70232
H 	 -3.62043 	 -0.29765 	 0.81141
H 	 -3.40919 	 -1.07769 	 -0.75445
H 	 -1.72102 	 3.46600 	 -0.15398
H 	 -0.06451 	 2.98494 	 0.15522
H 	 -0.79678 	 2.66851 	 -1.41440
