66
Name: Molecule_26 Comments: 
C 	 -3.26758 	 -0.11859 	 -0.00084
C 	 -1.89505 	 -0.06933 	 -0.00076
C 	 -4.00258 	 -0.22921 	 1.17860
C 	 -1.16634 	 -0.09709 	 1.17951
C 	 -3.29690 	 -0.29354 	 2.35573
C 	 -1.86920 	 -0.23031 	 2.35282
C 	 -1.16998 	 0.01105 	 -1.18088
C 	 -4.00849 	 -0.06073 	 -1.18033
C 	 -1.88052 	 0.09344 	 -2.35429
C 	 -3.30910 	 0.05407 	 -2.35735
C 	 -5.46795 	 -0.25556 	 0.78395
C 	 -5.47202 	 -0.13922 	 -0.78576
C 	 0.32538 	 -0.01923 	 0.85796
C 	 0.32343 	 0.04157 	 -0.85883
H 	 -3.80187 	 -0.39258 	 3.30811
H 	 -1.34890 	 -0.29271 	 3.30020
H 	 -1.36601 	 0.19334 	 -3.30162
H 	 -3.81978 	 0.11688 	 -3.30977
H 	 -6.01739 	 0.56868 	 1.23881
H 	 -5.95066 	 -1.17719 	 1.10911
H 	 -5.96117 	 -1.00058 	 -1.24066
H 	 -6.01935 	 0.74557 	 -1.11091
C 	 0.95396 	 -1.30693 	 1.42022
C 	 0.35664 	 -2.53135 	 1.10875
C 	 2.05240 	 -1.32779 	 2.26970
C 	 0.86631 	 -3.72473 	 1.57818
C 	 2.56440 	 -2.52646 	 2.75265
C 	 1.98483 	 -3.73036 	 2.40095
H 	 -0.51954 	 -2.55136 	 0.47639
H 	 2.52257 	 -0.40755 	 2.57776
H 	 0.38794 	 -4.65456 	 1.30211
H 	 3.42173 	 -2.50773 	 3.41218
H 	 2.38864 	 -4.66306 	 2.77065
C 	 0.96393 	 1.24326 	 1.44090
C 	 2.30156 	 1.55092 	 1.18626
C 	 0.23862 	 2.14924 	 2.20342
C 	 2.88589 	 2.70711 	 1.66507
C 	 0.81869 	 3.31343 	 2.69080
C 	 2.14366 	 3.60101 	 2.42352
H 	 2.89980 	 0.88718 	 0.58272
H 	 -0.80413 	 1.96396 	 2.41086
H 	 3.92192 	 2.91568 	 1.43560
H 	 0.22079 	 3.99890 	 3.27635
H 	 2.59462 	 4.51096 	 2.79514
C 	 0.85755 	 1.37182 	 -1.41976
C 	 0.17182 	 2.54938 	 -1.10960
C 	 1.95441 	 1.47314 	 -2.26551
C 	 0.59512 	 3.77703 	 -1.57648
C 	 2.37961 	 2.70623 	 -2.74596
C 	 1.71306 	 3.86458 	 -2.39536
H 	 -0.70612 	 2.50527 	 -0.48094
H 	 2.49133 	 0.58982 	 -2.57247
H 	 0.04949 	 4.66943 	 -1.30161
H 	 3.23829 	 2.75037 	 -3.40253
H 	 2.04948 	 4.82447 	 -2.76295
C 	 1.05277 	 -1.17069 	 -1.44185
C 	 2.40839 	 -1.38128 	 -1.18372
C 	 0.39717 	 -2.12522 	 -2.20830
C 	 3.07634 	 -2.49111 	 -1.66286
C 	 1.06149 	 -3.24334 	 -2.69605
C 	 2.40303 	 -3.43480 	 -2.42530
H 	 2.95510 	 -0.67743 	 -0.57672
H 	 -0.65561 	 -2.01566 	 -2.41882
H 	 4.12404 	 -2.62465 	 -1.43046
H 	 0.51647 	 -3.96910 	 -3.28467
H 	 2.91979 	 -4.30894 	 -2.79720
