44
Name: Molecule_17 Comments: 
C 	 0.51961 	 0.63295 	 0.00000
C 	 -0.51961 	 -0.63295 	 0.00000
C 	 0.12788 	 -2.13458 	 0.00000
C 	 -1.44355 	 -0.55026 	 1.22946
C 	 -1.44355 	 -0.55026 	 -1.22946
H 	 -2.05742 	 -1.43961 	 1.32278
H 	 -0.90913 	 -0.42452 	 2.16806
H 	 -2.13630 	 0.27525 	 1.13441
H 	 -2.05742 	 -1.43961 	 -1.32278
H 	 -2.13630 	 0.27525 	 -1.13441
H 	 -0.90913 	 -0.42452 	 -2.16806
C 	 -0.12788 	 2.13458 	 0.00000
C 	 1.44355 	 0.55026 	 1.22946
C 	 1.44355 	 0.55026 	 -1.22946
H 	 2.05742 	 1.43961 	 1.32278
H 	 0.90913 	 0.42452 	 2.16806
H 	 2.13630 	 -0.27525 	 1.13441
H 	 2.05742 	 1.43961 	 -1.32278
H 	 2.13630 	 -0.27525 	 -1.13441
H 	 0.90913 	 0.42452 	 -2.16806
C 	 -0.99106 	 -3.21308 	 0.00000
C 	 0.97326 	 -2.47546 	 -1.24318
C 	 0.97326 	 -2.47546 	 1.24318
H 	 -0.51182 	 -4.19155 	 0.00000
H 	 -1.62593 	 -3.18262 	 0.88178
H 	 -1.62593 	 -3.18262 	 -0.88178
H 	 1.07027 	 -3.55917 	 -1.32268
H 	 0.51790 	 -2.12306 	 -2.16747
H 	 1.98322 	 -2.08223 	 -1.18952
H 	 1.07027 	 -3.55917 	 1.32268
H 	 1.98322 	 -2.08223 	 1.18952
H 	 0.51790 	 -2.12306 	 2.16747
C 	 0.99106 	 3.21308 	 0.00000
C 	 -0.97326 	 2.47546 	 -1.24318
C 	 -0.97326 	 2.47546 	 1.24318
H 	 0.51182 	 4.19155 	 0.00000
H 	 1.62593 	 3.18262 	 0.88178
H 	 1.62593 	 3.18262 	 -0.88178
H 	 -1.07027 	 3.55917 	 -1.32268
H 	 -0.51790 	 2.12306 	 -2.16747
H 	 -1.98322 	 2.08223 	 -1.18952
H 	 -1.07027 	 3.55917 	 1.32268
H 	 -1.98322 	 2.08223 	 1.18952
H 	 -0.51790 	 2.12306 	 2.16747
