22
Name: Molecule_53 Comments: 
C 	 0.00000 	 0.00000 	 0.74077
C 	 -0.42330 	 1.11958 	 1.45444
C 	 0.42330 	 -1.11958 	 1.45444
C 	 -0.42352 	 1.12031 	 2.83963
C 	 0.42352 	 -1.12031 	 2.83963
C 	 0.00000 	 0.00000 	 3.53795
H 	 -0.77583 	 1.99072 	 0.91809
H 	 0.77583 	 -1.99072 	 0.91809
H 	 -0.76306 	 1.99652 	 3.37523
H 	 0.76306 	 -1.99652 	 3.37523
H 	 0.00000 	 0.00000 	 4.61929
C 	 0.00000 	 0.00000 	 -0.74077
C 	 -0.42330 	 -1.11958 	 -1.45444
C 	 0.42330 	 1.11958 	 -1.45444
C 	 -0.42352 	 -1.12031 	 -2.83963
C 	 0.42352 	 1.12031 	 -2.83963
C 	 0.00000 	 0.00000 	 -3.53795
H 	 -0.77583 	 -1.99072 	 -0.91809
H 	 0.77583 	 1.99072 	 -0.91809
H 	 -0.76306 	 -1.99652 	 -3.37523
H 	 0.76306 	 1.99652 	 -3.37523
H 	 0.00000 	 0.00000 	 -4.61929
