18
carbon bond length: 
C 	 -0.43305 	 -0.00005 	 -0.33327
C 	 0.26505 	 -1.19449 	 -0.18767
C 	 0.26498 	 1.19444 	 -0.18774
C 	 1.62209 	 -1.19768 	 0.09528
C 	 1.62201 	 1.19774 	 0.09521
C 	 2.30572 	 0.00005 	 0.23841
C 	 -1.91655 	 -0.00010 	 -0.59133
H 	 -0.26169 	 -2.13441 	 -0.30114
H 	 -0.26183 	 2.13432 	 -0.30126
H 	 2.14760 	 -2.13733 	 0.20097
H 	 2.14746 	 2.13743 	 0.20085
H 	 3.36492 	 0.00009 	 0.45641
H 	 -2.18255 	 0.87570 	 -1.18588
H 	 -2.18253 	 -0.87607 	 -1.18564
C 	 -2.72741 	 0.00007 	 0.70541
H 	 -2.49535 	 0.88057 	 1.30546
H 	 -3.79781 	 0.00004 	 0.49871
H 	 -2.49533 	 -0.88025 	 1.30570
