52
carbon bond length: 
C 	 0.56915 	 -0.58345 	 -0.76479
C 	 -0.56915 	 0.58345 	 -0.76479
C 	 -0.58582 	 1.33872 	 -2.11747
C 	 -2.01114 	 0.03712 	 -0.52337
C 	 -1.58567 	 2.48923 	 -2.22051
H 	 0.40636 	 1.71136 	 -2.35698
H 	 -0.81621 	 0.62796 	 -2.90760
C 	 -2.74792 	 -0.69026 	 -1.64598
H 	 -2.01723 	 -0.61362 	 0.34660
H 	 -2.61864 	 0.89931 	 -0.24478
C 	 0.58582 	 -1.33872 	 -2.11747
C 	 2.01114 	 -0.03712 	 -0.52337
C 	 1.58567 	 -2.48923 	 -2.22051
H 	 -0.40636 	 -1.71136 	 -2.35698
H 	 0.81621 	 -0.62796 	 -2.90760
C 	 2.74792 	 0.69026 	 -1.64598
H 	 2.01723 	 0.61362 	 0.34660
H 	 2.61864 	 -0.89931 	 -0.24478
H 	 -1.46525 	 2.99840 	 -3.17700
H 	 -2.61578 	 2.13857 	 -2.16696
H 	 -1.44803 	 3.22579 	 -1.43043
H 	 -3.77596 	 -0.86998 	 -1.32976
H 	 -2.79159 	 -0.11373 	 -2.56897
H 	 -2.31810 	 -1.66036 	 -1.88209
H 	 1.46525 	 -2.99840 	 -3.17700
H 	 2.61578 	 -2.13857 	 -2.16696
H 	 1.44803 	 -3.22579 	 -1.43043
H 	 3.77596 	 0.86998 	 -1.32976
H 	 2.79159 	 0.11373 	 -2.56897
H 	 2.31810 	 1.66036 	 -1.88209
C 	 -0.26588 	 1.56572 	 0.38391
C 	 -0.75914 	 1.36224 	 1.67219
C 	 0.53203 	 2.69487 	 0.19425
C 	 -0.45827 	 2.22431 	 2.71611
C 	 0.83608 	 3.56270 	 1.22937
C 	 0.34430 	 3.33097 	 2.50358
H 	 -1.38322 	 0.50940 	 1.88686
H 	 0.93290 	 2.91571 	 -0.78318
H 	 -0.85851 	 2.02343 	 3.70092
H 	 1.45901 	 4.42547 	 1.03456
H 	 0.57818 	 4.00632 	 3.31514
C 	 0.26588 	 -1.56572 	 0.38391
C 	 0.75914 	 -1.36224 	 1.67219
C 	 -0.53203 	 -2.69487 	 0.19425
C 	 0.45827 	 -2.22431 	 2.71611
C 	 -0.83608 	 -3.56270 	 1.22937
C 	 -0.34430 	 -3.33097 	 2.50358
H 	 1.38322 	 -0.50940 	 1.88686
H 	 -0.93290 	 -2.91571 	 -0.78318
H 	 0.85851 	 -2.02343 	 3.70092
H 	 -1.45901 	 -4.42547 	 1.03456
H 	 -0.57818 	 -4.00632 	 3.31514
