44
carbon bond length: 
C 	 -0.44540 	 -0.65793 	 -0.05783
C 	 0.44540 	 0.65793 	 -0.05783
C 	 -0.45280 	 1.90397 	 -0.26321
C 	 1.22833 	 0.77187 	 1.25746
C 	 1.46770 	 0.63108 	 -1.20535
H 	 1.94081 	 1.59536 	 1.20865
H 	 0.57555 	 0.95066 	 2.10999
H 	 1.80086 	 -0.13318 	 1.46065
H 	 1.96427 	 1.59785 	 -1.29096
H 	 2.24529 	 -0.11331 	 -1.04033
H 	 0.99737 	 0.42246 	 -2.16686
C 	 0.45280 	 -1.90397 	 -0.26321
C 	 -1.22833 	 -0.77187 	 1.25746
C 	 -1.46770 	 -0.63108 	 -1.20535
H 	 -1.94081 	 -1.59536 	 1.20865
H 	 -0.57555 	 -0.95066 	 2.10999
H 	 -1.80086 	 0.13318 	 1.46065
H 	 -1.96427 	 -1.59785 	 -1.29096
H 	 -2.24529 	 0.11331 	 -1.04033
H 	 -0.99737 	 -0.42246 	 -2.16686
C 	 0.18226 	 3.29212 	 -0.04158
H 	 -1.33557 	 1.83725 	 0.37742
H 	 -0.82562 	 1.86583 	 -1.28771
C 	 -0.32320 	 4.27888 	 -1.09237
C 	 -0.09199 	 3.84064 	 1.35801
H 	 1.26549 	 3.21743 	 -0.16386
H 	 -0.06094 	 3.95050 	 -2.09914
H 	 -1.41140 	 4.36777 	 -1.04357
H 	 0.09895 	 5.27329 	 -0.93883
H 	 0.38887 	 4.81001 	 1.49877
H 	 -1.16593 	 3.97827 	 1.50629
H 	 0.26818 	 3.17298 	 2.13871
C 	 -0.18226 	 -3.29212 	 -0.04158
H 	 1.33557 	 -1.83725 	 0.37742
H 	 0.82562 	 -1.86583 	 -1.28771
C 	 0.32320 	 -4.27888 	 -1.09237
C 	 0.09199 	 -3.84064 	 1.35801
H 	 -1.26549 	 -3.21743 	 -0.16386
H 	 0.06094 	 -3.95050 	 -2.09914
H 	 1.41140 	 -4.36777 	 -1.04357
H 	 -0.09895 	 -5.27329 	 -0.93883
H 	 -0.38887 	 -4.81001 	 1.49877
H 	 1.16593 	 -3.97827 	 1.50629
H 	 -0.26818 	 -3.17298 	 2.13871
