20
carbon bond length: 
C 	 -0.16489 	 0.75261 	 0.00000
C 	 0.16489 	 -0.75261 	 0.00000
H 	 1.25786 	 -0.84305 	 0.00000
C 	 -0.36571 	 -1.45872 	 1.24747
C 	 -0.36571 	 -1.45872 	 -1.24747
H 	 -0.17398 	 -2.53090 	 1.19261
H 	 0.09675 	 -1.09014 	 2.16160
H 	 -1.44635 	 -1.31961 	 1.33671
H 	 -0.17398 	 -2.53090 	 -1.19261
H 	 -1.44635 	 -1.31961 	 -1.33671
H 	 0.09675 	 -1.09014 	 -2.16160
H 	 -1.25786 	 0.84305 	 0.00000
C 	 0.36571 	 1.45872 	 1.24747
C 	 0.36571 	 1.45872 	 -1.24747
H 	 0.17398 	 2.53090 	 1.19261
H 	 -0.09675 	 1.09014 	 2.16160
H 	 1.44635 	 1.31961 	 1.33671
H 	 0.17398 	 2.53090 	 -1.19261
H 	 1.44635 	 1.31961 	 -1.33671
H 	 -0.09675 	 1.09014 	 -2.16160
