15
carbon bond length: 
C 	 0.00000 	 0.00000 	 1.19377
C 	 0.00000 	 0.00000 	 -0.27821
C 	 -0.88540 	 1.15433 	 -0.76733
C 	 1.44238 	 0.18962 	 -0.76733
C 	 -0.55698 	 -1.34395 	 -0.76733
H 	 -0.89223 	 1.16323 	 -1.85770
H 	 -1.90979 	 1.03800 	 -0.41608
H 	 -0.50755 	 2.11356 	 -0.41608
H 	 1.45350 	 0.19108 	 -1.85770
H 	 1.85383 	 1.13493 	 -0.41608
H 	 2.08417 	 -0.61723 	 -0.41608
H 	 -0.56127 	 -1.35431 	 -1.85770
H 	 0.05596 	 -2.17293 	 -0.41608
H 	 -1.57663 	 -1.49633 	 -0.41608
N 	 0.00000 	 0.00000 	 2.34116
