58
carbon bond length: 
H 	 -2.23753 	 -3.38410 	 0.00419
H 	 3.54775 	 -0.30323 	 2.47670
C 	 -2.17136 	 -2.29405 	 0.00558
C 	 3.21920 	 -0.18344 	 1.44230
C 	 -1.16718 	 1.76431 	 1.23857
C 	 -1.28184 	 1.79425 	 -1.27796
C 	 -3.36068 	 1.87281 	 0.05842
H 	 -0.70964 	 -0.15351 	 2.11594
H 	 1.61669 	 -2.22315 	 -0.55354
H 	 -0.76692 	 -0.10211 	 -2.18851
H 	 1.19973 	 2.03910 	 -0.05962
H 	 -4.43365 	 0.00639 	 0.04225
H 	 4.90603 	 0.35951 	 -1.36241
C 	 -1.18298 	 0.23105 	 1.21207
C 	 1.85100 	 -1.22261 	 -0.90766
C 	 -1.22704 	 0.25489 	 -1.26152
C 	 1.64274 	 1.20364 	 -0.59522
C 	 -3.39482 	 0.34960 	 0.02725
C 	 3.81673 	 0.27171 	 -1.39164
C 	 -2.79681 	 -1.73386 	 1.27561
C 	 3.85200 	 -1.27053 	 0.57235
C 	 -2.85613 	 -1.73021 	 -1.23562
C 	 3.63964 	 1.19325 	 0.92481
C 	 -0.70694 	 -1.88984 	 -0.05351
C 	 1.69110 	 -0.28972 	 1.39741
C 	 -2.70918 	 -0.21349 	 -1.23257
C 	 3.16788 	 1.34466 	 -0.52146
C 	 -2.66274 	 -0.21824 	 1.25114
C 	 3.37804 	 -1.09414 	 -0.87221
C 	 -0.46207 	 -0.35813 	 -0.04271
C 	 1.13800 	 -0.14975 	 -0.03909
H 	 -2.29100 	 -2.14596 	 2.15321
H 	 3.56744 	 -2.25941 	 0.94166
H 	 -2.40139 	 -2.15490 	 -2.13463
H 	 3.20024 	 1.97704 	 1.54778
H 	 -3.85090 	 -2.01509 	 1.34681
H 	 4.94209 	 -1.20759 	 0.62378
H 	 -3.91586 	 -1.99869 	 -1.25158
H 	 4.72545 	 1.30579 	 0.98146
H 	 -0.29752 	 -2.31336 	 -0.96839
H 	 1.27872 	 0.49389 	 2.03465
H 	 -0.17102 	 -2.34909 	 0.78093
H 	 1.38112 	 -1.24508 	 1.82795
H 	 -3.20136 	 0.19824 	 -2.11831
H 	 3.43792 	 2.33521 	 -0.89349
H 	 -3.11030 	 0.20092 	 2.15744
H 	 3.80469 	 -1.88233 	 -1.49609
H 	 -1.66892 	 2.10614 	 2.14839
H 	 -0.15057 	 2.14923 	 1.28989
H 	 -0.31430 	 2.24680 	 -1.44510
H 	 -1.90661 	 2.10012 	 -2.12224
H 	 -3.90645 	 2.28285 	 -0.79537
H 	 -3.85277 	 2.23717 	 0.96436
C 	 -1.90358 	 2.32582 	 0.01579
H 	 -1.85182 	 3.41622 	 0.02574
H 	 1.49471 	 -1.15414 	 -1.94004
H 	 1.34945 	 1.29301 	 -1.64169
H 	 3.50855 	 0.39624 	 -2.43305
