19
carbon bond length: 
C 	 1.57678 	 0.62265 	 -0.00001
C 	 2.58333 	 -0.21342 	 -0.74704
C 	 2.58331 	 -0.21336 	 0.74709
H 	 1.76792 	 1.68741 	 -0.00005
H 	 3.38142 	 0.30175 	 -1.26145
H 	 2.21207 	 -1.09153 	 -1.25674
H 	 3.38139 	 0.30184 	 1.26147
H 	 2.21205 	 -1.09144 	 1.25685
C 	 0.13231 	 0.27590 	 -0.00001
C 	 -0.31854 	 -1.04306 	 0.00003
C 	 -0.81804 	 1.29270 	 -0.00005
C 	 -1.67251 	 -1.33274 	 0.00003
C 	 -2.17449 	 1.00616 	 -0.00004
C 	 -2.60882 	 -0.30928 	 -0.00000
H 	 0.39233 	 -1.86005 	 0.00005
H 	 -0.48953 	 2.32456 	 -0.00007
H 	 -1.99854 	 -2.36426 	 0.00006
H 	 -2.89302 	 1.81484 	 -0.00007
H 	 -3.66595 	 -0.53641 	 -0.00000
