74
carbon bond length: 
C 	 -1.89239 	 -1.02529 	 0.72477
C 	 -1.03120 	 0.18720 	 0.17801
C 	 0.61952 	 -0.02950 	 -0.12227
C 	 2.43728 	 0.57864 	 -1.86121
C 	 1.01618 	 0.86821 	 -1.34719
C 	 0.96157 	 -1.53375 	 -0.41254
C 	 1.69284 	 0.38023 	 0.99902
C 	 2.38482 	 -1.72896 	 -0.96542
C 	 3.14691 	 0.12328 	 0.44170
C 	 2.59713 	 -0.89101 	 -2.21632
C 	 3.44817 	 0.98011 	 -0.78607
C 	 3.39586 	 -1.34159 	 0.11631
H 	 2.59555 	 1.18994 	 -2.75479
H 	 2.49964 	 -2.78862 	 -1.21188
H 	 3.82644 	 0.41528 	 1.25000
H 	 0.35336 	 0.65950 	 -2.18240
C 	 0.95250 	 2.37039 	 -1.02196
C 	 0.86347 	 -2.44016 	 0.82882
H 	 0.29182 	 -1.89834 	 -1.18505
C 	 1.73923 	 1.88113 	 1.34783
C 	 1.55518 	 -0.50591 	 2.24417
H 	 3.59164 	 -1.07357 	 -2.63233
H 	 1.86979 	 -1.17330 	 -2.98308
C 	 3.35064 	 2.46209 	 -0.45124
H 	 4.45933 	 0.74803 	 -1.13401
H 	 4.41050 	 -1.45053 	 -0.27881
C 	 3.24710 	 -2.16726 	 1.38620
C 	 -3.34362 	 -0.57063 	 1.06423
C 	 -1.82051 	 0.58965 	 -1.12072
C 	 -1.20203 	 1.31679 	 1.22126
C 	 -3.25931 	 1.05514 	 -0.78704
C 	 -2.63555 	 1.73918 	 1.50881
C 	 -4.06070 	 -0.11842 	 -0.21607
C 	 -3.38598 	 0.55179 	 2.08772
C 	 -3.27113 	 2.21009 	 0.20567
H 	 -3.85736 	 -1.44663 	 1.47020
H 	 -3.71893 	 1.37852 	 -1.72609
H 	 -2.61369 	 2.55940 	 2.22978
C 	 -2.08418 	 -2.20482 	 -0.24856
H 	 -1.46324 	 -1.37188 	 1.66427
H 	 -1.34364 	 1.43583 	 -1.60581
C 	 -1.92667 	 -0.56331 	 -2.13023
H 	 -0.74571 	 1.00483 	 2.15918
H 	 -0.67997 	 2.20341 	 0.89343
H 	 -5.06704 	 0.22443 	 0.04261
C 	 -4.14968 	 -1.24709 	 -1.23421
H 	 -2.91601 	 0.23453 	 3.02263
H 	 -4.42312 	 0.81105 	 2.31690
H 	 -4.29775 	 2.54651 	 0.37279
H 	 -2.71308 	 3.06178 	 -0.19362
C 	 1.82956 	 -1.97858 	 1.91359
H 	 1.11750 	 -3.46003 	 0.52466
H 	 -0.13305 	 -2.49011 	 1.23913
H 	 0.55922 	 -0.41189 	 2.67990
H 	 2.26297 	 -0.16124 	 3.00480
H 	 3.98628 	 -1.84286 	 2.12375
H 	 3.43060 	 -3.22594 	 1.18508
H 	 1.68362 	 -2.58091 	 2.81252
C 	 -2.73528 	 -1.72427 	 -1.54631
H 	 -2.74020 	 -2.93537 	 0.23338
H 	 -1.16870 	 -2.73445 	 -0.47005
H 	 -0.94182 	 -0.90988 	 -2.43989
H 	 -2.42080 	 -0.19414 	 -3.03352
H 	 -4.64715 	 -0.89435 	 -2.14182
H 	 -4.74622 	 -2.07168 	 -0.83531
H 	 -2.76824 	 -2.54589 	 -2.26435
C 	 1.94812 	 2.73337 	 0.08592
H 	 -0.05190 	 2.69136 	 -0.76576
H 	 1.21840 	 2.92632 	 -1.92583
H 	 2.59865 	 2.03220 	 2.00863
H 	 0.88297 	 2.21390 	 1.91764
H 	 3.54482 	 3.06707 	 -1.34097
H 	 4.10441 	 2.72726 	 0.29453
H 	 1.84304 	 3.79006 	 0.33950
