66
carbon bond length: 
C 	 1.90249 	 -0.68451 	 -1.14636
C 	 1.34482 	 0.03515 	 0.10974
C 	 -0.30382 	 0.03013 	 0.26657
C 	 -2.20644 	 -1.27505 	 1.44313
C 	 -0.72190 	 -1.26315 	 1.05248
C 	 -1.20664 	 0.00346 	 -1.03545
C 	 -0.78092 	 1.30943 	 1.05165
C 	 -2.72082 	 -0.04810 	 -0.61578
C 	 -2.26642 	 1.19802 	 1.46047
C 	 -3.05251 	 -1.31393 	 0.16986
C 	 -2.53818 	 -0.05194 	 2.28095
C 	 -3.13015 	 1.17931 	 0.18823
H 	 -2.38871 	 -2.18127 	 2.02869
H 	 -3.29123 	 -0.05487 	 -1.55167
H 	 -2.51436 	 2.08211 	 2.05421
C 	 -0.45518 	 -2.53808 	 0.23941
H 	 -0.17272 	 -1.30716 	 1.98959
C 	 -1.02580 	 1.29139 	 -1.84849
C 	 -1.01839 	 -1.26449 	 -1.88434
H 	 -0.18550 	 1.39744 	 1.96568
C 	 -0.70227 	 2.63413 	 0.25979
H 	 -4.11379 	 -1.29342 	 0.43564
C 	 -2.75556 	 -2.55725 	 -0.65880
H 	 -1.92829 	 -0.04494 	 3.18879
H 	 -3.58525 	 -0.07649 	 2.59510
H 	 -4.18117 	 1.07959 	 0.47609
C 	 -2.95358 	 2.41580 	 -0.68231
C 	 3.43622 	 -0.72927 	 -1.17982
C 	 1.98958 	 -0.63004 	 1.35817
C 	 1.98551 	 1.44829 	 0.04989
C 	 3.52067 	 -0.65313 	 1.30771
C 	 3.51859 	 1.43935 	 -0.00383
C 	 3.96691 	 -1.43280 	 0.06964
C 	 3.99258 	 0.68951 	 -1.24463
C 	 4.07171 	 0.76769 	 1.24908
H 	 3.73793 	 -1.28601 	 -2.06954
H 	 3.88403 	 -1.15481 	 2.20709
H 	 3.85655 	 2.47705 	 -0.04675
H 	 1.54577 	 -1.70564 	 -1.21754
H 	 1.56038 	 -0.16436 	 -2.04187
H 	 1.66554 	 -0.09951 	 2.25811
H 	 1.66661 	 -1.66192 	 1.46403
H 	 1.63077 	 1.97973 	 -0.83130
H 	 1.70117 	 2.02169 	 0.92980
H 	 5.05754 	 -1.49578 	 0.03306
H 	 3.58563 	 -2.45668 	 0.11503
H 	 3.63683 	 1.19151 	 -2.14831
H 	 5.08470 	 0.67427 	 -1.28978
H 	 5.16460 	 0.75597 	 1.22749
H 	 3.77014 	 1.32477 	 2.14005
C 	 -1.47813 	 2.52561 	 -1.05117
H 	 -1.61845 	 1.21749 	 -2.76600
H 	 0.01383 	 1.40437 	 -2.16077
H 	 0.30170 	 2.97453 	 0.07091
H 	 -1.16299 	 3.41091 	 0.87691
H 	 -3.27040 	 3.31674 	 -0.15096
H 	 -3.57970 	 2.32637 	 -1.57436
H 	 -1.30927 	 3.42162 	 -1.65178
C 	 -1.28049 	 -2.52946 	 -1.05276
H 	 -0.75313 	 -3.40131 	 0.84154
H 	 0.60066 	 -2.67425 	 0.02922
H 	 -0.04736 	 -1.30305 	 -2.36034
H 	 -1.74652 	 -1.22853 	 -2.70120
H 	 -3.38877 	 -2.57132 	 -1.54973
H 	 -2.98088 	 -3.45992 	 -0.08457
H 	 -1.03736 	 -3.41137 	 -1.64868
