18
carbon bond length: 
C 	 -0.03153 	 0.34994 	 0.00000
C 	 -0.56566 	 -1.06160 	 0.00000
C 	 0.12810 	 -2.18904 	 0.00000
C 	 -0.56566 	 1.06355 	 -1.25047
C 	 -0.56566 	 1.06355 	 1.25047
C 	 1.49447 	 0.39823 	 0.00000
H 	 -0.24621 	 2.10733 	 -1.25958
H 	 -0.19779 	 0.58415 	 -2.15835
H 	 -1.65663 	 1.04522 	 -1.27638
H 	 -0.24621 	 2.10733 	 1.25958
H 	 -1.65663 	 1.04522 	 1.27638
H 	 -0.19779 	 0.58415 	 2.15835
H 	 1.83508 	 1.43463 	 0.00000
H 	 1.90744 	 -0.08975 	 0.88399
H 	 1.90744 	 -0.08975 	 -0.88399
H 	 -0.37155 	 -3.14835 	 0.00000
H 	 -1.65172 	 -1.12411 	 0.00000
H 	 1.21022 	 -2.20392 	 0.00000
