8
carbon bond length: 1.523 - Mealha
C 	 0.00000 	 0.00000 	 0.76156
C 	 0.00000 	 0.00000 	 -0.76156
H 	 -0.22142 	 0.99159 	 1.15708
H 	 0.22142 	 -0.99159 	 -1.15708
H 	 0.96945 	 -0.30404 	 1.15708
H 	 -0.74803 	 -0.68755 	 1.15708
H 	 0.74803 	 0.68755 	 -1.15708
H 	 -0.96945 	 0.30404 	 -1.15708
