12
carbon bond length: 
C 	 -1.71567 	 -0.24833 	 -0.29111
C 	 -0.53741 	 0.52308 	 0.30313
C 	 0.71724 	 -0.29274 	 0.33817
H 	 -2.62461 	 0.35291 	 -0.27637
H 	 -1.90923 	 -1.16188 	 0.27327
H 	 -1.51083 	 -0.53228 	 -1.32357
H 	 -0.79174 	 0.82937 	 1.32181
H 	 -0.36289 	 1.43751 	 -0.26700
C 	 1.84812 	 0.01616 	 -0.27677
H 	 2.71849 	 -0.62335 	 -0.21784
H 	 0.66468 	 -1.21580 	 0.90992
H 	 1.94247 	 0.92445 	 -0.86074
