302

C          0.90427        0.02403       -0.04577
C          2.42230        0.03538       -0.03516
C          2.95713        1.46313       -0.06957
C          4.48122        1.47560       -0.05826
C          5.00388        2.90588       -0.09410
C          6.52542        2.91979       -0.08209
C          7.04125        4.34955       -0.11695
C          8.56144        4.36132       -0.10475
C          9.07581        5.79044       -0.14042
C         10.59443        5.79869       -0.12856
C         11.10740        7.22720       -0.16437
C         12.62514        7.23396       -0.15331
C         13.13702        8.66208       -0.19003
C         14.65433        8.66795       -0.17993
C         15.16532       10.09615       -0.21638
C         16.68250       10.10228       -0.20503
C         17.19269       11.53055       -0.24345
C         18.70981       11.53546       -0.23076
C         19.21962       12.96318       -0.27115
C         20.73637       12.96748       -0.26139
C         21.24654       14.39646       -0.29858
C         22.76330       14.40036       -0.29057
C         23.27425       15.82782       -0.32801
C         24.79098       15.83282       -0.32057
C         25.30104       17.26079       -0.35743
C         26.81770       17.26621       -0.35143
C         27.32755       18.69417       -0.38813
C         28.84418       18.69928       -0.38089
C         29.35417       20.12719       -0.41468
C         30.87077       20.13193       -0.40799
C         31.38096       21.55973       -0.44175
C         32.89755       21.56438       -0.43439
C         33.40763       22.99223       -0.46817
C         34.92421       22.99713       -0.46208
C         35.43403       24.42509       -0.49593
C         36.95060       24.43018       -0.49038
C         37.46043       25.85813       -0.52441
C         38.97703       25.86300       -0.52040
C         39.48703       27.29089       -0.55387
C         41.00364       27.29566       -0.55013
C         41.51367       28.72359       -0.58197
C         43.03028       28.72835       -0.57970
C         43.54030       30.15634       -0.60950
C         45.05691       30.16111       -0.60786
C         45.56692       31.58914       -0.63604
C         47.08355       31.59390       -0.63583
C         47.59354       33.02193       -0.66398
C         49.11017       33.02670       -0.66392
C         49.62019       34.45474       -0.69174
C         51.13682       34.45950       -0.69158
C         51.64684       35.88757       -0.71774
C         53.16348       35.89235       -0.71575
C         53.67351       37.32044       -0.74111
C         55.19014       37.32527       -0.73762
C         55.70018       38.75337       -0.76189
C         57.21681       38.75816       -0.75964
C         57.72687       40.18623       -0.78533
C         59.24350       40.19103       -0.78308
C         59.75353       41.61911       -0.80899
C         61.27016       41.62395       -0.80519
C         61.78018       43.05203       -0.83124
C         63.29680       43.05689       -0.82747
C         63.80682       44.48497       -0.85307
C         65.32345       44.48980       -0.85088
C         65.83346       45.91790       -0.87529
C         67.35009       45.92271       -0.87319
C         67.86010       47.35080       -0.89853
C         69.37673       47.35562       -0.89493
C         69.88673       48.78374       -0.91874
C         71.40335       48.78858       -0.91471
C         71.91334       50.21672       -0.93707
C         73.42995       50.22153       -0.93284
C         73.93997       51.64963       -0.95645
C         75.45658       51.65444       -0.95062
C         75.96661       53.08254       -0.97409
C         77.48323       53.08741       -0.96645
C         77.99316       54.51559       -0.98845
C         79.50979       54.52076       -0.98015
C         80.01954       55.94906       -1.00149
C         81.53620       55.95442       -0.99386
C         82.04620       57.38268       -1.01568
C         83.56294       57.38770       -1.00993
C         84.07345       58.81586       -1.03019
C         85.59031       58.82067       -1.02338
C         86.10112       60.24886       -1.04361
C         87.61812       60.25424       -1.03617
C         88.12903       61.68268       -1.05590
C         89.64643       61.68858       -1.04798
C         90.15847       63.11714       -1.06565
C         91.67619       63.12387       -1.05964
C         92.18916       64.55260       -1.07547
C         93.70785       64.56035       -1.07042
C         94.22210       65.98977       -1.08488
C         95.74200       66.00059       -1.07991
C         96.25844       67.43118       -1.09256
C         97.78013       67.44525       -1.08681
C         98.30265       68.87624       -1.10022
C         99.82697       68.88852       -1.09566
C        100.36309       70.31613       -1.10855
C        101.88122       70.32495       -1.10522
H          0.53226       -1.00428       -0.02168
H          0.51733        0.50722       -0.94891
H          0.50461        0.55359        0.82497
H          2.79678       -0.52373       -0.90052
H          2.78443       -0.47615        0.86417
H          2.57910        2.02197        0.79542
H          2.59236        1.97463       -0.96885
H          4.86503        0.92063       -0.92300
H          4.85139        0.96988        0.84193
H          4.62275        3.46354        0.77024
H          4.63721        3.41405       -0.99444
H          6.91050        2.36606       -0.94712
H          6.89617        2.41410        0.81794
H          6.65974        4.90612        0.74826
H          6.67396        4.85819       -1.01671
H          8.94588        3.80649       -0.96949
H          8.93154        3.85564        0.79563
H          8.69392        6.34691        0.72436
H          8.70797        6.29779       -1.04077
H         10.97811        5.24325       -0.99330
H         10.96392        5.29258        0.77182
H         10.72568        7.78337        0.70076
H         10.73895        7.73430       -1.06465
H         13.00799        6.67796       -1.01804
H         12.99493        6.72793        0.74704
H         12.75555        9.21839        0.67496
H         12.76781        9.16862       -1.09030
H         15.03637        8.11209       -1.04510
H         15.02429        8.16174        0.72027
H         14.78286       10.65232        0.64842
H         14.79618       10.60232       -1.11691
H         17.06479        9.54459       -1.06882
H         17.05121        9.59711        0.69651
H         16.80956       12.08774        0.62062
H         16.82460       12.03469       -1.14600
H         19.09222       10.97736       -1.09442
H         19.07914       11.03089        0.67079
H         18.83642       13.52194        0.59181
H         18.85097       13.46560       -1.17374
H         21.11991       12.40844       -1.12591
H         21.10625       12.46361        0.64167
H         20.86626       14.95218        0.56760
H         20.87570       14.90151       -1.19976
H         23.14414       13.84400       -1.15581
H         23.13413       13.89392        0.60948
H         22.89407       16.38416        0.53777
H         22.90308       16.33431       -1.22756
H         25.17113       15.27731       -1.18678
H         25.16244       15.32596        0.57863
H         24.92160       17.81591        0.50934
H         24.92875       17.76803       -1.25605
H         27.19732       16.71111       -1.21812
H         27.18998       16.75914        0.54729
H         26.94747       19.24953        0.47820
H         26.95607       19.20124       -1.28719
H         29.22432       18.14553       -1.24823
H         29.21577       18.19064        0.51724
H         28.97451       20.68069        0.45304
H         28.98234       20.63625       -1.31246
H         31.25047       19.57835       -1.27563
H         31.24251       19.62292        0.48986
H         31.00091       22.11349        0.42561
H         31.00961       22.06855       -1.33988
H         33.27760       21.01064       -1.30175
H         33.26897       21.05558        0.46373
H         33.02820       23.54569        0.39966
H         33.03553       23.50131       -1.36583
H         35.30365       22.44369       -1.32993
H         35.29639       22.48815        0.43559
H         35.05482       24.97842        0.37208
H         35.06149       24.93414       -1.39343
H         37.32975       23.87674       -1.35835
H         37.32318       23.92124        0.40717
H         37.08214       26.41124        0.34415
H         37.08706       26.36751       -1.42138
H         39.35522       25.31017       -1.38917
H         39.35043       25.35329        0.37637
H         39.10896       27.84365        0.31500
H         39.11355       27.80069       -1.45056
H         41.38163       26.74379       -1.41960
H         41.37721       26.78493        0.34599
H         41.13645       29.27498        0.28814
H         41.13932       29.23480       -1.47747
H         43.40740       28.17806       -1.45055
H         43.40474       28.21600        0.31512
H         43.16345       30.70641        0.26161
H         43.16555       30.66892       -1.50407
H         45.43364       29.61194       -1.47959
H         45.43177       29.64760        0.28613
H         45.19094       32.13792        0.23625
H         45.19131       32.10304       -1.52948
H         47.45951       31.04511       -1.50813
H         47.45918       31.07999        0.25760
H         47.21764       33.57070        0.20836
H         47.21785       33.53586       -1.55737
H         49.48609       32.47808       -1.53633
H         49.48584       32.51263        0.22941
H         49.24423       35.00326        0.18073
H         49.24453       34.96892       -1.58500
H         51.51279       33.91188       -1.56461
H         51.51243       33.94439        0.20117
H         51.26992       36.43545        0.15472
H         51.27218       36.40238       -1.61105
H         53.54053       35.34484       -1.58837
H         53.53802       35.37713        0.17740
H         53.29564       37.86825        0.13097
H         53.29979       37.83532       -1.63479
H         55.56793       36.77812       -1.61016
H         55.56393       36.80971        0.15563
H         55.32305       39.30022        0.11112
H         55.32573       39.26925       -1.65468
H         57.59398       38.21049       -1.63212
H         57.59123       38.24312        0.13365
H         57.34971       40.73396        0.08711
H         57.35245       40.70121       -1.67866
H         59.62070       39.64320       -1.65545
H         59.61789       39.67616        0.11032
H         59.37551       42.16729        0.06280
H         59.37995       42.13360       -1.70295
H         61.64825       41.07567       -1.67689
H         61.64367       41.10957        0.08886
H         61.40210       43.60029        0.04048
H         61.40665       43.56644       -1.72527
H         63.67483       42.50887       -1.69935
H         63.67039       42.54224        0.06640
H         63.42963       45.03258        0.01944
H         63.43240       45.00007       -1.74633
H         65.70051       43.94291       -1.72390
H         65.69798       43.97397        0.04190
H         65.45644       46.46476       -0.00223
H         65.45888       46.43376       -1.76803
H         67.72725       45.37524       -1.74579
H         67.72452       45.40748        0.01999
H         67.48216       47.89856       -0.02645
H         67.48646       47.86572       -1.79221
H         69.75470       46.80870       -1.76753
H         69.75036       46.83985       -0.00174
H         69.50855       49.33060       -0.04619
H         69.51332       49.29957       -1.81199
H         71.78152       48.24252       -1.78777
H         71.77680       48.27192       -0.02194
H         71.53512       50.76276       -0.06401
H         71.53997       50.73340       -1.82984
H         73.80833       49.67471       -1.80533
H         73.80316       49.70565       -0.03953
H         73.56078       52.19679       -0.08453
H         73.56759       52.16517       -1.85031
H         75.83590       51.10729       -1.82249
H         75.82881       51.13889       -0.05671
H         75.58636       53.62994       -0.10279
H         75.59528       53.59779       -1.86854
H         77.86353       52.54078       -1.83822
H         77.85449       52.57136       -0.07243
H         77.61244       55.06219       -0.11684
H         77.62214       55.03155       -1.88262
H         79.89049       53.97450       -1.85199
H         79.88080       54.00442       -0.08619
H         79.63907       56.49512       -0.12943
H         79.64810       56.46545       -1.89523
H         81.91652       55.40800       -1.86575
H         81.90758       55.43823       -0.09996
H         81.66686       57.92862       -0.14306
H         81.67380       57.89934       -1.90887
H         83.94200       56.84255       -1.88317
H         83.93528       56.86994       -0.11735
H         83.69375       59.36116       -0.15732
H         83.70165       59.33331       -1.92315
H         85.96988       58.27519       -1.89619
H         85.96189       58.30305       -0.13038
H         85.72087       60.79425       -0.17105
H         85.72960       60.76608       -1.93684
H         87.99813       59.70890       -1.90886
H         87.98932       59.73658       -0.14307
H         87.74826       62.22764       -0.18330
H         87.75757       62.20005       -1.94907
H         90.02633       61.14403       -1.92120
H         90.01705       61.16960       -0.15542
H         89.77825       63.66033       -0.19168
H         89.78556       63.63604       -1.95747
H         92.05478       62.58061       -1.93422
H         92.04765       62.60312       -0.16846
H         91.80964       65.09418       -0.20025
H         91.81551       65.07284       -1.96607
H         94.08573       64.01793       -1.94583
H         94.07963       64.03836       -0.18011
H         93.84193       66.53000       -0.20915
H         93.84768       66.51046       -1.97483
H         96.11971       65.45924       -1.95605
H         96.11374       65.47711       -0.19047
H         95.87718       67.97018       -0.21659
H         95.88390       67.95208       -1.98226
H         98.15753       66.90260       -1.96225
H         98.15077       66.92167       -0.19697
H         97.92281       69.41598       -0.22425
H         97.92834       69.39733       -1.98979
H        100.20068       68.34412       -1.97161
H        100.19547       68.36183       -0.20677
H         99.99303       70.86095       -0.23219
H         99.99719       70.84315       -1.99745
H        102.27182       69.82686       -0.21181
H        102.25464       71.35296       -1.11515
H        102.27562       69.80833       -1.98627
