53

C          1.00227       -0.07121       -0.07295
C          2.51914       -0.07599       -0.06550
C          3.04423       -1.29858        0.66981
C          4.56446       -1.30679        0.67722
C          5.08064       -2.53123        1.41576
C          6.59698       -2.53684        1.42147
C          7.10825       -3.75978        2.15987
C          8.62608       -3.76693        2.16286
C          9.13715       -4.99167        2.89529
C         10.65269       -4.99507        2.90131
C         11.16626       -6.21883        3.63823
C         12.68336       -6.22377        3.64094
C         13.19607       -7.44686        4.37643
C         14.71618       -7.45446        4.38331
C         15.23313       -8.67865        5.12177
C         16.75324       -8.69429        5.13360
C         17.26633       -9.91657        5.87097
H          0.62510        0.80826       -0.60179
H          0.61166       -0.05353        0.94924
H          0.61630       -0.96586       -0.57135
H          2.88677        0.83874        0.41532
H          2.89132       -0.06884       -1.09724
H          2.67346       -2.21070        0.18816
H          2.67086       -1.30215        1.70033
H          4.94191       -0.39705        1.16101
H          4.94423       -1.30889       -0.35234
H          4.70505       -3.44360        0.93455
H          4.70276       -2.53257        2.44646
H          6.97223       -1.62555        1.90340
H          6.97439       -2.53671        0.39138
H          6.73310       -4.67095        1.67693
H          6.73320       -3.75857        3.18924
H          9.00259       -2.85551        2.64589
H          9.00276       -3.76644        1.13470
H          8.76143       -5.90055        2.41447
H          8.75818       -4.99516        3.92912
H         11.02882       -4.08356        3.38425
H         11.02710       -4.99328        1.87236
H         10.79055       -7.12916        3.15448
H         10.79041       -6.21857        4.66855
H         13.05905       -5.31307        4.12331
H         13.05914       -6.22284        2.61051
H         12.82002       -8.35842        3.89395
H         12.81782       -7.44941        5.40706
H         15.08811       -6.54136        4.86511
H         15.09032       -7.45314        3.35174
H         14.85504       -9.58701        4.63875
H         14.85272       -8.67649        6.14973
H         17.13501       -7.78678        5.61709
H         17.13739       -8.69722        4.10623
H         16.91305       -9.91855        6.90681
H         18.35959       -9.92741        5.87921
H         16.91541      -10.83381        5.38798
