59

C          0.82740       -0.06540        0.07853
C          2.34588       -0.05835        0.06766
C          2.88144        0.83226       -1.04904
C          4.40647        0.83943       -1.06104
C          4.93145        1.73227       -2.17955
C          6.45446        1.73958       -2.19306
C          6.97311        2.63425       -3.30994
C          8.49514        2.64117       -3.32128
C          9.01518        3.53666       -4.43733
C         10.53666        3.54186       -4.45011
C         11.05536        4.43877       -5.56493
C         12.57715        4.44266       -5.57788
C         13.09803        5.33864       -6.69267
C         14.62042        5.34302       -6.70667
C         15.14302        6.23812       -7.82209
C         16.66732        6.24478       -7.84037
C         17.18766        7.14013       -8.96009
C         18.71249        7.15497       -8.98803
C         19.22823        8.04874      -10.10292
H          0.45718       -0.70705        0.88364
H          0.43187       -0.44373       -0.86961
H          0.43351        0.94358        0.23669
H          2.71317       -1.08279       -0.06394
H          2.71443        0.29728        1.03690
H          2.51053        1.85599       -0.91624
H          2.50837        0.47669       -2.01741
H          4.78200       -0.18205       -1.19755
H          4.78429        1.19730       -0.09544
H          4.55870        2.75508       -2.04452
H          4.55566        1.37601       -3.14659
H          6.83020        0.71834       -2.33192
H          6.83305        2.09609       -1.22733
H          6.59925        3.65551       -3.17307
H          6.59846        2.27792       -4.27712
H          8.87118        1.62177       -3.46076
H          8.87437        2.99693       -2.35484
H          8.64223        4.55851       -4.29668
H          8.63664        3.18341       -5.40448
H         10.91083        2.52057       -4.59103
H         10.91501        3.89513       -3.48310
H         10.68148        5.46017       -5.42334
H         10.67574        4.08600       -6.53172
H         12.94945        3.42047       -5.71857
H         12.95544        4.79518       -4.61056
H         12.72459        6.36043       -6.55180
H         12.71851        4.98575       -7.65951
H         14.99189        4.31976       -6.84594
H         14.99833        5.69516       -5.73870
H         14.76880        7.25956       -7.68088
H         14.76161        5.88458       -8.78790
H         17.03922        5.22218       -7.97902
H         17.04629        6.59950       -6.87408
H         16.80995        8.16038       -8.81954
H         16.80335        6.78370       -9.92369
H         19.09295        6.13723       -9.13262
H         19.09941        7.51343       -8.02698
H         18.87903        7.69606      -11.07870
H         20.32165        8.05113      -10.11175
H         18.88498        9.07928       -9.96698
