8

C          0.98941       -0.06828        0.07159
C          2.50148       -0.06828        0.07159
H          0.60514       -0.81905       -0.62531
H          0.60514        0.91064       -0.23014
H          0.60514       -0.29643        1.07023
H          2.88575        0.15987       -0.92704
H          2.88575       -1.04720        0.37333
H          2.88575        0.68249        0.76849
