65

C          1.04615       -0.02202        0.02337
C          2.56204       -0.02782        0.02724
C          3.09166       -1.04561        1.02844
C          4.61356       -1.05471        1.03535
C          5.12900       -2.07771        2.03527
C          6.64820       -2.08530        2.04125
C          7.16052       -3.10637        3.04187
C          8.67919       -3.11072        3.04844
C          9.18994       -4.13027        4.04860
C         10.70674       -4.13440        4.05319
C         11.21855       -5.15325        5.05351
C         12.73527       -5.15785        5.05754
C         13.24689       -6.17790        6.05800
C         14.76491       -6.18291        6.06200
C         15.27819       -7.20191        7.06277
C         16.79882       -7.20581        7.06865
C         17.30822       -8.22320        8.06929
C         18.83307       -8.23161        8.07724
C         19.34798       -9.25109        9.08044
C         20.87092       -9.26713        9.09611
C         21.38395      -10.28403       10.09763
H          0.67067        0.71112       -0.69602
H          0.65661        0.23719        1.01382
H          0.65475       -1.00647       -0.25190
H          2.93251        0.97174        0.28146
H          2.93017       -0.26612       -0.97815
H          2.72017       -2.04559        0.77454
H          2.72092       -0.80990        2.03416
H          4.99269       -0.05869        1.29514
H          4.99074       -1.29453        0.03360
H          4.75428       -3.07609        1.77729
H          4.75532       -1.84091        3.03921
H          7.02592       -1.08851        2.30043
H          7.02506       -2.32467        1.03928
H          6.78600       -4.10441        2.78288
H          6.78369       -2.86883        4.04442
H          9.05294       -2.11249        3.30816
H          9.05594       -3.34741        2.04569
H          8.81444       -5.12791        3.78960
H          8.81393       -3.89201        5.05107
H         11.08293       -3.13643        4.31011
H         11.08260       -4.37401        3.05059
H         10.84217       -6.15128        4.79632
H         10.84305       -4.91398        6.05614
H         13.11127       -4.16012        5.31579
H         13.11115       -5.39685        4.05508
H         12.87049       -7.17540        5.79987
H         12.87130       -5.93868        7.06051
H         15.14011       -5.18451        6.31868
H         15.13941       -6.42202        5.05888
H         14.90159       -8.19977        6.80452
H         14.90000       -6.96274        8.06481
H         17.16969       -6.20577        7.32575
H         17.17167       -7.44374        6.06465
H         16.93394       -9.22177        7.81205
H         16.93399       -7.98405        9.07174
H         19.20528       -7.23183        8.33254
H         19.20546       -8.47063        7.07353
H         18.96698      -10.24715        8.82266
H         18.96712       -9.00893       10.08052
H         21.25143       -8.27235        9.35562
H         21.25169       -9.51089        8.09754
H         21.03455      -10.04472       11.10697
H         22.47738      -10.29156       10.10524
H         21.03450      -11.28958        9.84287
