77

C          0.88049       -0.10488       -0.04590
C          2.39836       -0.09536       -0.04824
C          2.93341        1.32239       -0.22131
C          4.45760        1.33537       -0.22088
C          4.98038        2.75563       -0.39352
C          6.50176        2.76957       -0.39149
C          7.01902        4.19000       -0.56160
C          8.53904        4.20165       -0.55994
C          9.05388        5.62200       -0.72767
C         10.57344        5.63073       -0.72721
C         11.08693        7.04956       -0.89310
C         12.60531        7.05675       -0.89638
C         13.11884        8.47591       -1.06283
C         14.63727        8.48426       -1.06448
C         15.14937        9.90421       -1.23030
C         16.66799        9.91270       -1.23094
C         17.18267       11.33256       -1.39323
C         18.70228       11.34001       -1.39389
C         19.22031       12.75971       -1.55851
C         20.74143       12.76895       -1.56324
C         21.26193       14.18930       -1.73023
C         22.78558       14.20539       -1.73393
C         23.30440       15.62864       -1.89808
C         24.82827       15.65571       -1.90255
C         25.33957       17.07302       -2.06568
H          0.50819       -1.12552        0.07894
H          0.48658        0.29057       -0.98775
H          0.48801        0.50542        0.77383
H          2.76640       -0.73382       -0.85998
H          2.76721       -0.52047        0.89263
H          2.56060        1.96030        0.58934
H          2.56257        1.74707       -1.16255
H          4.83578        0.70153       -1.03225
H          4.83314        0.91583        0.72039
H          4.60446        3.39213        0.41695
H          4.60868        3.17764       -1.33538
H          6.88225        2.13767       -1.20347
H          6.87795        2.34946        0.54951
H          6.64253        4.82412        0.25058
H          6.64586        4.61317       -1.50241
H          8.91810        3.57112       -1.37362
H          8.91490        3.77953        0.37980
H          8.67808        6.25400        0.08632
H          8.67937        6.04670       -1.66737
H         10.94976        5.00012       -1.54212
H         10.94863        5.20615        0.21193
H         10.71151        7.68136       -0.07919
H         10.71121        7.47421       -1.83345
H         12.98083        6.42606       -1.71148
H         12.98214        6.63153        0.04218
H         12.74346        9.10639       -0.24731
H         12.74265        8.90111       -2.00147
H         15.01296        7.85410       -1.87982
H         15.01346        8.05900       -0.12583
H         14.77297       10.53361       -0.41454
H         14.77258       10.32965       -2.16863
H         17.04354        9.28358       -2.04743
H         17.04284        9.48493       -0.29301
H         16.80705       11.96044       -0.57601
H         16.80630       11.76028       -2.33056
H         19.07624       10.70991       -2.21059
H         19.07730       10.91203       -0.45639
H         18.84558       13.38815       -0.74129
H         18.84162       13.18672       -2.49533
H         21.11308       12.13716       -2.37933
H         21.11691       12.34164       -0.62539
H         20.88466       14.81892       -0.91473
H         20.88297       14.61327       -2.66814
H         23.15933       13.57484       -2.54985
H         23.16064       13.77784       -0.79576
H         22.92415       16.25478       -1.08138
H         22.92243       16.05275       -2.83482
H         25.21016       15.03381       -2.71977
H         25.21181       15.23576       -0.96619
H         24.99532       17.50998       -3.00911
H         26.43532       17.08414       -2.06887
H         24.99755       17.71256       -1.24593
