83

C          1.07065       -0.05324        0.00719
C          2.58263       -0.05751        0.00549
C          3.10383       -1.16203        0.91223
C          4.62182       -1.16917        0.91547
C          5.13315       -2.27221        1.82360
C          6.64978       -2.27838        1.82607
C          7.16072       -3.38185        2.73196
C          8.67677       -3.38759        2.73405
C          9.18754       -4.49209        3.63818
C         10.70350       -4.49781        3.64025
C         11.21420       -5.60231        4.54437
C         12.73016       -5.60799        4.54642
C         13.24085       -6.71250        5.45055
C         14.75682       -6.71691        5.45416
C         15.26751       -7.82142        6.35829
C         16.78348       -7.82582        6.36191
C         17.29417       -8.93033        7.26603
C         18.81012       -8.93347        7.27121
C         19.32085      -10.03924        8.17378
C         20.83683      -10.04116        8.18055
C         21.34762      -11.14825        9.08160
C         22.86396      -11.15021        9.08840
C         23.37548      -12.25631        9.99123
C         24.89298      -12.25827        9.99806
C         25.40612      -13.36376       10.90300
C         26.92715      -13.37285       10.91566
C         27.43323      -14.47536       11.81815
H          0.69284        0.74057       -0.64445
H          0.68443        0.11740        1.01718
H          0.67970       -1.01003       -0.35345
H          2.95718        0.91466        0.34883
H          2.95252       -0.20813       -1.01616
H          2.72969       -2.13439        0.56871
H          2.73206       -1.01285        1.93350
H          4.99934       -0.19868        1.26020
H          4.99693       -1.32273       -0.10381
H          4.75724       -3.24399        1.48002
H          4.75964       -2.12002        2.84393
H          7.02666       -1.30771        2.17161
H          7.02431       -2.42988        0.80607
H          6.78425       -4.35283        2.38665
H          6.78662       -3.23071        3.75224
H          9.05343       -2.41713        3.08076
H          9.05110       -3.53739        1.71360
H          8.81095       -5.46258        3.29148
H          8.81329       -4.34234        4.65866
H         11.08009       -3.52733        3.98695
H         11.07774       -4.64757        2.61978
H         10.83760       -6.57277        4.19766
H         10.83995       -5.45253        5.56483
H         13.10673       -4.63752        4.89314
H         13.10441       -5.75776        3.52597
H         12.86542       -7.68310        5.10299
H         12.86545       -6.56353        6.47071
H         15.13223       -5.74630        5.80173
H         15.13223       -6.86587        4.43401
H         14.89210       -8.79204        6.01074
H         14.89209       -7.67244        7.37844
H         17.15888       -6.85520        6.70947
H         17.15890       -7.97479        5.34177
H         16.91990       -9.90109        6.91761
H         16.91761       -8.78218        8.28588
H         19.18434       -7.96318        7.62098
H         19.18675       -9.08020        6.25118
H         18.94775      -11.00965        7.82314
H         18.94308       -9.89334        9.19352
H         21.20982       -9.07117        8.53250
H         21.21458      -10.18559        7.16058
H         20.97450      -12.11810        8.72956
H         20.96974      -11.00369       10.10144
H         23.23658      -10.17970        9.43894
H         23.24128      -11.29599        8.06860
H         23.00170      -13.22632        9.64037
H         22.99697      -12.11005       11.01058
H         25.26462      -11.28702       10.34704
H         25.26930      -12.40526        8.97826
H         25.03012      -14.33314       10.55313
H         25.02542      -13.21551       11.92112
H         27.30294      -12.40382       11.26644
H         27.30765      -13.52206        9.89771
H         27.07973      -14.32984       12.84392
H         28.52744      -14.48425       11.82918
H         27.08446      -15.45269       11.46954
