98

C          0.88571        0.00684       -0.08252
C          2.40396       -0.00002       -0.08430
C          2.93265       -1.22154       -0.82485
C          4.45338       -1.23186       -0.82655
C          4.96916       -2.45508       -1.57003
C          6.48750       -2.46427       -1.57132
C          7.00020       -3.68496       -2.31610
C          8.51798       -3.69191       -2.31569
C          9.02816       -4.91157       -3.05748
C         10.54633       -4.91950       -3.05805
C         11.05680       -6.13928       -3.79877
C         12.57240       -6.14799       -3.80026
C         13.08324       -7.36574       -4.54113
C         14.59945       -7.37310       -4.54254
C         15.11031       -8.59071       -5.28589
C         16.62790       -8.59515       -5.28855
C         17.13712       -9.81287       -6.03397
C         18.65439       -9.81651       -6.03844
C         19.16506      -11.03413       -6.78456
C         20.68063      -11.03927       -6.78732
C         21.19093      -12.25549       -7.53450
C         22.70742      -12.25962       -7.53863
C         23.21775      -13.47688       -8.28613
C         24.73455      -13.47923       -8.29273
C         25.24554      -14.69577       -9.04180
C         26.76334      -14.69802       -9.05048
C         27.27604      -15.91444       -9.79920
C         28.79505      -15.91841       -9.81151
C         29.31002      -17.13670      -10.56183
C         30.83140      -17.13973      -10.57555
C         31.35999      -18.35617      -11.32502
C         32.87806      -18.35631      -11.33695
H          0.51180        0.88469        0.44969
H          0.49522       -0.88879        0.41088
H          0.49755        0.03156       -1.10563
H          2.77137       -0.00126        0.94807
H          2.77374        0.91468       -0.56119
H          2.56321       -1.21993       -1.85754
H          2.55871       -2.13636       -0.34937
H          4.82948       -1.24002        0.20382
H          4.83410       -0.32101       -1.30421
H          4.59678       -2.44960       -2.60205
H          4.59219       -3.36834       -1.09437
H          6.86271       -2.47315       -0.54066
H          6.86741       -1.55209       -2.04742
H          6.62754       -3.67758       -3.34773
H          6.62282       -4.59872       -1.84105
H          8.89189       -3.69847       -1.28441
H          8.89650       -2.77925       -2.79234
H          8.65650       -4.90636       -4.08960
H          8.65181       -5.82550       -2.58166
H         10.92033       -4.92459       -2.02582
H         10.92484       -4.00575       -3.53336
H         10.68257       -6.13340       -4.83503
H         10.67882       -7.05210       -3.32228
H         12.94776       -6.15264       -2.76696
H         12.95193       -5.23273       -4.27610
H         12.70890       -7.36094       -5.57303
H         12.70608       -8.28043       -4.06445
H         14.97477       -7.37907       -3.51075
H         14.97738       -6.45815       -5.01855
H         14.73486       -8.58481       -6.31681
H         14.73477       -9.50490       -4.80913
H         17.00255       -8.60248       -4.25806
H         17.00252       -7.68078       -5.76405
H         16.76058       -9.80653       -7.06449
H         16.76283      -10.72773       -5.55783
H         19.03085       -9.82319       -5.00812
H         19.02854       -8.90183       -6.51505
H         18.78729      -11.02731       -7.81466
H         18.78892      -11.94898       -6.30770
H         21.05729      -11.04592       -5.75784
H         21.05616      -10.12290       -7.26406
H         20.81375      -12.24858       -8.56435
H         20.81602      -13.17077       -7.05815
H         23.08471      -12.26810       -6.50864
H         23.08226      -11.34474       -8.01412
H         22.83933      -13.46918       -9.31591
H         22.84402      -14.39185       -7.81007
H         25.11274      -13.48833       -7.26268
H         25.10832      -12.56385       -8.76738
H         24.86616      -14.68735      -10.07098
H         24.87322      -15.61128       -8.56583
H         27.14257      -14.70574       -8.02038
H         27.13525      -13.78148       -9.52556
H         26.89420      -15.90631      -10.82811
H         26.90356      -16.82961       -9.32252
H         29.17419      -15.92468       -8.78201
H         29.16465      -15.00169      -10.28716
H         28.92620      -17.12813      -11.58909
H         28.93785      -18.05059      -10.08347
H         31.20869      -17.14351       -9.54607
H         31.19698      -16.22166      -11.05066
H         30.98557      -18.35197      -12.35475
H         30.99730      -19.27425      -10.84950
H         33.26158      -17.45711      -11.82922
H         33.25220      -19.23053      -11.87551
H         33.27338      -18.38386      -10.31668
