104

C          1.02744       -0.06984        0.03165
C          2.54355       -0.07140        0.03708
C          3.07322       -0.92777        1.18126
C          4.59109       -0.93342        1.18908
C          5.11074       -1.78908        2.33643
C          6.62808       -1.79429        2.34266
C          7.13565       -2.64732        3.48886
C          8.65260       -2.65052        3.49347
C          9.16323       -3.50475        4.63844
C         10.67943       -3.50703        4.64140
C         11.18994       -4.36137        5.78617
C         12.70696       -4.36604        5.78891
C         13.21694       -5.22199        6.93263
C         14.73368       -5.22642        6.93517
C         15.24347       -6.08386        8.07760
C         16.76025       -6.08825        8.08003
C         17.27018       -6.94738        9.22130
C         18.78693       -6.95012        9.22500
C         19.29686       -7.81092       10.36502
C         20.81364       -7.81363       10.36871
C         21.32343       -8.67430       11.50871
C         22.84016       -8.67879       11.51121
C         23.35014       -9.53955       12.65130
C         24.86717       -9.54261       12.65525
C         25.37766      -10.40329       13.79527
C         26.89387      -10.40560       13.79823
C         27.40449      -11.26479       14.93950
C         28.92152      -11.26645       14.94531
C         29.42967      -12.12579       16.08700
C         30.94676      -12.12676       16.09683
C         31.46656      -12.98834       17.23959
C         32.98384      -12.98923       17.25054
C         33.51349      -13.84871       18.39233
C         35.02961      -13.84704       18.40025
H          0.65060        0.54517       -0.79007
H          0.63904        0.33373        0.97172
H          0.64134       -1.08621       -0.09206
H          2.91368        0.95604        0.14000
H          2.91556       -0.45819       -0.91967
H          2.69916       -1.95543        1.08103
H          2.69894       -0.54158        2.13897
H          4.97007        0.09104        1.29258
H          4.97006       -1.32440        0.23638
H          4.73189       -2.81448        2.23436
H          4.73200       -1.39991        3.29020
H          7.00161       -0.76880        2.44349
H          7.00146       -2.18556        1.38928
H          6.75966       -3.67261        3.38829
H          6.75979       -2.25614        4.44240
H          9.02734       -1.62331        3.59356
H          9.02782       -3.03892        2.53875
H          8.78758       -4.53029        4.53623
H          8.78757       -3.11489        5.59236
H         11.05629       -2.48194        4.74405
H         11.05610       -3.89740        3.68782
H         10.81332       -5.38698        5.68519
H         10.81561       -3.97097        6.74085
H         13.08395       -3.34078        5.89171
H         13.08160       -4.75521        4.83408
H         12.83919       -6.24717        6.83014
H         12.84197       -4.83283        7.88732
H         15.11079       -4.20132        7.03885
H         15.10860       -5.61412        5.97944
H         14.86615       -7.10896        7.97380
H         14.86869       -5.69621        9.03305
H         17.13721       -5.06343        8.18542
H         17.13538       -6.47460        7.12399
H         16.89384       -7.97263        9.11519
H         16.89435       -6.56195       10.17716
H         19.16301       -5.92501        9.33241
H         19.16322       -7.33419        8.26857
H         18.92071       -8.83607       10.25756
H         18.92096       -7.42661       11.32127
H         21.18980       -6.78862       10.47625
H         21.18956       -8.19765        9.41215
H         20.94641       -9.69927       11.40226
H         20.94842       -8.28938       12.46543
H         23.21768       -7.65433       11.61807
H         23.21556       -9.06378       10.55475
H         22.97426      -10.56455       12.54352
H         22.97443       -9.15512       13.60767
H         25.24262       -8.51722       12.76279
H         25.24266       -9.92678       11.69854
H         25.00093      -11.42788       13.68686
H         25.00086      -10.01831       14.75095
H         27.26950       -9.38049       13.90485
H         27.26954      -10.79134       12.84266
H         27.03085      -12.29215       14.83442
H         27.02809      -10.88113       15.89562
H         29.29610      -10.24122       15.05237
H         29.29862      -11.65136       13.98980
H         29.05792      -13.15144       15.97862
H         29.05317      -11.74155       17.04200
H         31.32276      -11.10141       16.20343
H         31.32793      -12.51118       15.14122
H         31.09041      -14.01329       17.12889
H         31.08361      -12.60395       18.19318
H         33.35448      -11.96081       17.35614
H         33.36154      -13.37003       16.29206
H         33.14586      -14.87663       18.28498
H         33.13898      -13.46635       19.34988
H         35.42038      -14.24623       17.45930
H         35.40643      -14.46432       19.22027
H         35.41330      -12.83031       18.52840
