113

C          0.98059       -0.09734       -0.07377
C          2.49682       -0.09078       -0.06886
C          3.02492        1.33073        0.09865
C          4.54367        1.33469        0.10519
C          5.05685        2.75404        0.27049
C          6.57517        2.76153        0.27718
C          7.08392        4.18063        0.44485
C          8.60333        4.18620        0.45107
C          9.11402        5.60428        0.62059
C         10.63086        5.60801        0.62713
C         11.14145        7.02598        0.79829
C         12.65805        7.03058        0.80292
C         13.16829        8.44834        0.97413
C         14.68474        8.45303        0.97671
C         15.19489        9.87060        1.14975
C         16.71130        9.87560        1.15058
C         17.22154       11.29317        1.32353
C         18.73808       11.29804        1.32411
C         19.24826       12.71585        1.49530
C         20.76471       12.72084        1.49583
C         21.27495       14.13861        1.66707
C         22.79142       14.14352        1.66758
C         23.30162       15.56113        1.84063
C         24.81805       15.56631        1.83936
C         25.32822       16.98385        2.01252
C         26.84471       16.98909        2.01102
C         27.35506       18.40671        2.18419
C         28.87183       18.41247        2.18091
C         29.38167       19.83053        2.35406
C         30.89839       19.83638        2.35088
C         31.41015       21.25641        2.52188
C         32.92759       21.26032        2.51845
C         33.44145       22.67902        2.68767
C         34.95973       22.68696        2.68455
C         35.47042       24.10698        2.85592
C         36.99593       24.12809        2.85439
C         37.50803       25.54498        3.02541
H          0.60551       -1.11866       -0.19415
H          0.59294        0.51106       -0.89698
H          0.58816        0.30504        0.86549
H          2.86906       -0.52043       -1.00697
H          2.86422       -0.72544        0.74689
H          2.64739        1.75620        1.03579
H          2.65424        1.96026       -0.71867
H          4.92412        0.90811       -0.83107
H          4.91698        0.70637        0.92321
H          4.67882        3.18279        1.20687
H          4.68596        3.38456       -0.54707
H          6.95531        2.33586       -0.65960
H          6.94835        2.13198        1.09478
H          6.70519        4.60755        1.38067
H          6.71300        4.81196       -0.37328
H          8.98256        3.76158       -0.48576
H          8.97526        3.55521        1.26699
H          8.73498        6.02925        1.55852
H          8.74222        6.23653       -0.19574
H         11.01047        5.18456       -0.31114
H         11.00359        4.97554        1.44253
H         10.76316        7.44894        1.73727
H         10.76799        7.65892       -0.01631
H         13.03620        6.60760       -0.13609
H         13.03159        6.39756        1.61749
H         12.79106        8.87069        1.91376
H         12.79356        9.08168        0.16030
H         15.06165        8.03183        0.03637
H         15.05950        7.81872        1.78958
H         14.81887       10.29126        2.09076
H         14.81908       10.50530        0.33766
H         17.08737        9.45477        0.20952
H         17.08726        9.24088        1.96248
H         16.84572       11.71382        2.26453
H         16.84566       11.92777        0.51142
H         19.11397       10.87621        0.38372
H         19.11393       10.66441        2.13710
H         18.87235       13.13779        2.43566
H         18.87235       13.34949        0.68225
H         21.14062       12.29889        0.55546
H         21.14062       12.08720        2.30887
H         20.89902       14.56047        2.60737
H         20.89900       14.77233        0.85407
H         23.16717       13.72289        0.72658
H         23.16740       13.50892        2.47969
H         22.92675       15.98132        2.78235
H         22.92460       16.19615        1.02941
H         25.19284       15.14625        0.89762
H         25.19512       14.93130        2.65060
H         24.95359       17.40397        2.95412
H         24.95122       17.61898        1.20118
H         27.21939       16.56900        1.06932
H         27.22194       16.35406        2.82232
H         26.98142       18.82631        3.12653
H         26.97689       19.04209        1.37365
H         29.24520       17.99264        1.23845
H         29.24992       17.77683        2.99131
H         29.00739       20.24999        3.29659
H         29.00278       20.46561        1.54333
H         31.27171       19.41592        1.40968
H         31.27639       19.20256        3.16157
H         31.03603       21.67664        3.46354
H         31.03092       21.89015        1.71140
H         33.30032       20.83765        1.57707
H         33.30493       20.62664        3.33062
H         33.06611       23.10038        3.62848
H         33.06151       23.31124        1.87561
H         35.33210       22.26530        1.74282
H         35.33688       22.05215        3.49576
H         35.09698       24.52602        3.79756
H         35.09223       24.73932        2.04420
H         37.37533       23.71149        1.91327
H         37.38003       23.49822        3.66614
H         37.15607       26.18540        2.21049
H         38.60264       25.55608        3.02382
H         37.16081       25.97107        3.97198
