122

C          0.95940        0.04319        0.08483
C          2.47584        0.03869        0.07987
C          3.00232       -1.36126       -0.19833
C          4.52388       -1.37029       -0.20225
C          5.03756       -2.77246       -0.48284
C          6.55616       -2.78051       -0.48652
C          7.06753       -4.18133       -0.76894
C          8.58470       -4.18624       -0.77204
C          9.09541       -5.58618       -1.05636
C         10.61235       -5.59081       -1.05916
C         11.12244       -6.99011       -1.34323
C         12.64281       -6.99473       -1.34388
C         13.14786       -8.39671       -1.62910
C         14.66455       -8.40223       -1.63029
C         15.17544       -9.79865       -1.91377
C         16.69240       -9.80400       -1.91762
C         17.20278      -11.20379       -2.20120
C         18.71950      -11.20783       -2.20411
C         19.22953      -12.60757       -2.48843
C         20.74616      -12.61224       -2.48938
C         21.25619      -14.01158       -2.77554
C         22.77282      -14.01665       -2.77456
C         23.28284      -15.41598       -3.06084
C         24.79949      -15.42106       -3.05981
C         25.30952      -16.82001       -3.34793
C         26.82619      -16.82548       -3.34502
C         27.33625      -18.22481       -3.63127
C         28.85289      -18.23036       -3.62817
C         29.36296      -19.63013       -3.91256
C         30.87958      -19.63615       -3.90769
C         31.38984      -21.03555       -4.19410
C         32.90661      -21.04157       -4.18880
C         33.41746      -22.44074       -4.47705
C         34.93477      -22.44775       -4.47024
C         35.44613      -23.84738       -4.75855
C         36.96470      -23.85785       -4.75049
C         37.47839      -25.25842       -5.03899
C         38.99992      -25.26950       -5.03294
C         39.52641      -26.66747       -5.32089
C         41.04283      -26.67437       -5.31407
H          0.58359        1.05105        0.28506
H          0.57115       -0.62861        0.85720
H          0.56643       -0.28467       -0.88301
H          2.84682        0.39212        1.04856
H          2.84219        0.73446       -0.68344
H          2.63018       -1.71510       -1.16762
H          2.63275       -2.05834        0.56371
H          4.90267       -1.02336        0.76693
H          4.90030       -0.67770       -0.96498
H          4.66187       -3.12220       -1.45259
H          4.66427       -3.46803        0.27919
H          6.93422       -2.43415        0.48329
H          6.93190       -2.08607       -1.24810
H          6.69127       -4.52879       -1.73899
H          6.69367       -4.87708       -0.00772
H          8.96225       -3.84089        0.19838
H          8.95995       -3.49035       -1.53258
H          8.71888       -5.93213       -2.02688
H          8.72117       -6.28276       -0.29594
H         10.98927       -5.24496       -0.08858
H         10.98664       -4.89349       -1.81950
H         10.74602       -7.33527       -2.31447
H         10.74690       -7.68630       -0.58336
H         13.01470       -6.65033       -0.37365
H         13.01469       -6.29884       -2.10398
H         12.77268       -8.73748       -2.59853
H         12.77310       -9.09220       -0.86953
H         15.04239       -8.05330       -0.65787
H         15.04191       -7.70239       -2.39012
H         14.79959      -10.14483       -2.88450
H         14.80060      -10.49639       -1.15245
H         17.06979       -9.45818       -0.94639
H         17.06776       -9.10663       -2.67784
H         16.82591      -11.54922       -3.17171
H         16.82824      -11.89985       -1.44079
H         19.09643      -10.86220       -1.23360
H         19.09417      -10.51155       -2.96453
H         18.85363      -12.95260       -3.45955
H         18.85383      -13.30419       -1.72882
H         21.12186      -12.26846       -1.51773
H         21.12205      -11.91466       -3.24801
H         20.88151      -14.35474       -3.74780
H         20.87926      -14.70948       -2.01772
H         23.14747      -13.67353       -1.80228
H         23.14976      -13.31873       -3.53235
H         22.90819      -15.75910       -4.03313
H         22.90591      -16.11391       -2.30306
H         25.17397      -15.07920       -2.08700
H         25.17657      -14.72215       -3.81661
H         24.93604      -17.16127       -4.32132
H         24.93139      -17.51916       -2.59188
H         27.19962      -16.48295       -2.37207
H         27.20426      -16.12724       -4.10196
H         26.96279      -18.56747       -4.60418
H         26.95802      -18.92288       -2.87422
H         29.22629      -17.88644       -2.65569
H         29.23106      -17.53320       -4.38609
H         28.99052      -19.97342       -4.88554
H         28.98375      -20.32748       -3.15538
H         31.25196      -19.29412       -2.93413
H         31.25905      -18.93802       -4.66396
H         31.01778      -21.37764       -5.16743
H         31.01045      -21.73409       -3.43778
H         33.27855      -20.70070       -3.21474
H         33.28590      -20.34196       -4.94394
H         33.04589      -22.78054       -5.45168
H         33.03654      -23.14017       -3.72264
H         35.30505      -22.10716       -3.49548
H         35.31457      -21.74756       -5.22441
H         35.07505      -24.18617       -5.73373
H         35.06346      -24.54668       -4.00491
H         37.33338      -23.51695       -3.77491
H         37.34499      -23.15645       -5.50367
H         37.10557      -25.59701       -6.01341
H         37.09602      -25.95662       -4.28437
H         39.36606      -24.92524       -4.05794
H         39.37550      -24.56582       -5.78596
H         39.16246      -27.01065       -6.29592
H         39.15305      -27.37020       -4.56744
H         41.43817      -25.99555       -6.07666
H         41.41865      -27.68080       -5.52137
H         41.42871      -26.35679       -4.33998
