125

C          0.94666        0.07822        0.05656
C          2.46286        0.07250        0.05326
C          2.98812       -1.32247       -0.25414
C          4.50852       -1.33208       -0.25631
C          5.02164       -2.72829       -0.56597
C          6.54000       -2.73629       -0.56775
C          7.05095       -4.13172       -0.87526
C          8.56843       -4.13706       -0.87643
C          9.07866       -5.53159       -1.18563
C         10.59578       -5.53656       -1.18682
C         11.10598       -6.93079       -1.49614
C         12.62249       -6.93518       -1.49917
C         13.13264       -8.32905       -1.81047
C         14.64940       -8.33311       -1.81345
C         15.15955       -9.72720       -2.12680
C         16.67434       -9.73197       -2.12791
C         17.18580      -11.12395       -2.43876
C         18.70127      -11.13169       -2.44045
C         19.21434      -12.52276       -2.75111
C         20.72824      -12.53080       -2.75290
C         21.24058      -13.92048       -3.06526
C         22.75425      -13.92854       -3.06707
C         23.26665      -15.31842       -3.37955
C         24.78149      -15.32684       -3.38140
C         25.29411      -16.71784       -3.69615
C         26.80929      -16.72490       -3.69570
C         27.31884      -18.11581       -4.01246
C         28.83604      -18.12084       -4.01151
C         29.34598      -19.51364       -4.32876
C         30.86256      -19.51888       -4.32786
C         31.37272      -20.91090       -4.64699
C         32.88924      -20.91620       -4.64612
C         33.39972      -22.30884       -4.96540
C         34.91653      -22.31442       -4.96249
C         35.42751      -23.70762       -5.27980
C         36.94498      -23.71383       -5.27701
C         37.45885      -25.10738       -5.59236
C         38.97824      -25.11520       -5.58995
C         39.49432      -26.50963       -5.90752
C         41.01616      -26.52913       -5.90781
C         41.52749      -27.92088       -6.22480
H          0.57166        1.08053        0.27742
H          0.55898       -0.61085        0.81381
H          0.55661       -0.22997       -0.91885
H          2.83471        0.40453        1.02974
H          2.83240        0.78366       -0.69492
H          2.61617       -1.65527       -1.23112
H          2.61629       -2.03512        0.49248
H          4.88605       -1.00591        0.72056
H          4.88609       -0.62349       -1.00363
H          4.64713       -3.05711       -1.54326
H          4.64708       -3.43945        0.18062
H          6.91675       -2.40816        0.40878
H          6.91668       -2.02807       -1.31592
H          6.67591       -4.46127       -1.85204
H          6.67597       -4.84133       -0.12745
H          8.94440       -3.80961        0.10070
H          8.94444       -3.42718       -1.62349
H          8.70338       -5.85931       -2.16297
H          8.70337       -6.24179       -0.43878
H         10.97165       -5.20891       -0.20968
H         10.97156       -4.82642       -1.93387
H         10.72897       -7.25906       -2.47274
H         10.73130       -7.64074       -0.74836
H         12.99946       -6.60834       -0.52237
H         12.99717       -6.22440       -2.24601
H         12.75582       -8.65594       -2.78751
H         12.75815       -9.04006       -1.06367
H         15.02614       -8.00764       -0.83592
H         15.02392       -7.62116       -2.55931
H         14.78347      -10.05144       -3.10469
H         14.78348      -10.43871       -1.38175
H         17.05170       -9.40553       -1.15027
H         17.05165       -9.02060       -2.87376
H         16.81031      -11.45165       -3.41666
H         16.81033      -11.83653       -1.69310
H         19.07828      -10.80409       -1.46257
H         19.07826      -10.41921       -3.18611
H         18.83688      -12.85016       -3.72896
H         18.83693      -13.23509       -2.00544
H         21.10486      -12.20404       -1.77444
H         21.10490      -11.81678       -3.49744
H         20.86360      -14.24699       -4.04372
H         20.86358      -14.63429       -2.32072
H         23.13158      -13.60228       -2.08873
H         23.13157      -13.21497       -3.81172
H         22.89024      -15.64516       -4.35802
H         22.89027      -16.03252       -2.63504
H         25.15815      -15.00177       -2.40255
H         25.15825      -14.61209       -4.12501
H         24.91795      -17.04089       -4.67537
H         24.91567      -17.43153       -2.95311
H         27.18360      -16.40188       -2.71576
H         27.18600      -16.00892       -4.43743
H         26.94495      -18.43738       -4.99208
H         26.94255      -18.83037       -3.27044
H         29.21073      -17.79950       -3.03184
H         29.21311      -17.40643       -4.75374
H         28.97123      -19.83503       -5.30843
H         28.96883      -20.22812       -3.58664
H         31.23704      -19.19869       -3.34778
H         31.23948      -18.80338       -5.06892
H         30.99804      -21.23110       -5.62714
H         30.99563      -21.62656       -3.90587
H         33.26382      -20.59604       -3.66595
H         33.26629      -20.20059       -5.38721
H         33.02603      -22.62787       -5.94600
H         33.02131      -23.02412       -4.22491
H         35.28976      -21.99344       -3.98214
H         35.29444      -21.59948       -5.70373
H         35.05328      -24.02805       -6.25992
H         35.04852      -24.42183       -4.53840
H         37.31737      -23.39098       -4.29704
H         37.32205      -22.99950       -6.01919
H         37.08386      -25.42893       -6.57188
H         37.07919      -25.82033       -4.85003
H         39.34963      -24.79310       -4.60939
H         39.35440      -24.39930       -6.33101
H         39.11604      -26.82833       -6.88676
H         39.11129      -27.22193       -5.16626
H         41.39363      -26.21206       -4.92850
H         41.39837      -25.81826       -6.64987
H         41.17352      -28.64173       -5.48075
H         42.62016      -27.93268       -6.22449
H         41.17828      -28.24610       -7.21009
