128

C          1.00670       -0.10853       -0.01817
C          2.52554       -0.09637       -0.01858
C          3.05835        1.31581        0.19056
C          4.58237        1.32821        0.19213
C          5.10408        2.74400        0.39983
C          6.62502        2.75661        0.40141
C          7.14112        4.17241        0.60718
C          8.66032        4.18243        0.60837
C          9.17389        5.59695        0.81580
C         10.69228        5.60462        0.81685
C         11.20411        7.01829        1.02435
C         12.72157        7.02407        1.02689
C         13.23198        8.43777        1.23271
C         14.75002        8.44290        1.23332
C         15.26126        9.85684        1.43809
C         16.77815        9.86219        1.44081
C         17.28879       11.27526        1.64615
C         18.80458       11.27944        1.65099
C         19.31552       12.69234        1.85732
C         20.83228       12.69747        1.86010
C         21.34235       14.11086        2.06726
C         22.85940       14.11572        2.06804
C         23.36958       15.52882        2.27386
C         24.88700       15.53391        2.27460
C         25.39822       16.94822        2.47866
C         26.91278       16.95177        2.48045
C         27.42367       18.36742        2.67695
C         28.93990       18.37304        2.67470
C         29.45144       19.78701        2.87623
C         30.96825       19.79292        2.87240
C         31.47964       21.20715        3.07267
C         32.99719       21.21390        3.06917
C         33.50954       22.62843        3.26882
C         35.02801       22.63635        3.26536
C         35.54138       24.05209        3.46320
C         37.06077       24.06312        3.45848
C         37.57637       25.47988        3.65643
C         39.09735       25.49320        3.65391
C         39.61925       26.91049        3.85189
C         41.14228       26.92292        3.84739
C         41.67751       28.33786        4.04497
C         43.19372       28.34845        4.04014
H          0.63548       -1.12552       -0.16886
H          0.61230        0.52385       -0.82049
H          0.61492        0.26281        0.93460
H          2.89195       -0.49651       -0.97100
H          2.89447       -0.75617        0.77516
H          2.68724        1.71609        1.14199
H          2.68677        1.97464       -0.60382
H          4.95953        0.93170       -0.75845
H          4.95977        0.67525        0.98855
H          4.73010        3.14327        1.35064
H          4.72978        3.39951       -0.39611
H          7.00292        2.35922       -0.54858
H          7.00307        2.10513        1.19883
H          6.76621        4.57202        1.55746
H          6.76602        4.82611       -0.18986
H          9.03758        3.78576       -0.34230
H          9.03796        3.52949        1.40491
H          8.79888        5.99510        1.76668
H          8.79867        6.25151        0.01951
H         11.06884        5.20749       -0.13394
H         11.06888        4.95105        1.61337
H         10.82803        7.41684        1.97463
H         10.82976        7.67247        0.22726
H         13.09885        6.62510        0.07703
H         13.09700        6.37127        1.82477
H         12.85737        8.83672        2.18315
H         12.85780        9.09095        0.43520
H         15.12600        8.04395        0.28312
H         15.12633        7.79008        2.03027
H         14.88439       10.25655        2.38797
H         14.88566       10.50915        0.63967
H         17.15447        9.46274        0.49018
H         17.15235        9.20829        2.23778
H         16.91062       11.67408        2.59669
H         16.91408       11.92749        0.84985
H         19.18186       10.88053        0.70018
H         19.17925       10.62574        2.44802
H         18.93854       13.09092        2.80779
H         18.94087       13.34608        1.05973
H         21.20943       12.29933        0.90990
H         21.20721       12.04399        2.65746
H         20.96671       14.50861        3.01817
H         20.96674       14.76485        1.27076
H         23.23501       13.71711        1.11762
H         23.23503       13.46253        2.86518
H         22.99415       15.92800        3.22416
H         22.99389       16.18214        1.47662
H         25.26201       15.13387        1.32423
H         25.26235       14.88167        3.07225
H         25.02161       17.34750        3.42916
H         25.02015       17.59993        1.68046
H         27.28498       16.55670        1.53010
H         27.29104       16.30197        3.27193
H         27.05043       18.76714        3.62875
H         27.04634       19.01836        1.88112
H         29.31439       17.97225        1.72409
H         29.31944       17.72127        3.47221
H         29.07822       20.18734        3.82651
H         29.07305       20.43825        2.07838
H         31.34150       19.39143        1.92232
H         31.34661       19.14210        3.67038
H         31.10627       21.60842        4.02291
H         31.10116       21.85791        2.27477
H         33.36996       20.81149        2.11898
H         33.37499       20.56282        3.86742
H         33.13582       23.02973        4.21881
H         33.13053       23.27820        2.47059
H         35.40034       22.23277        2.31571
H         35.40559       21.98645        4.06438
H         35.16763       24.45365        4.41314
H         35.16054       24.70065        2.66466
H         37.43207       23.65984        2.50828
H         37.43929       23.41276        4.25663
H         37.20099       25.88160        4.60560
H         37.19593       26.12758        2.85703
H         39.46896       25.08851        2.70447
H         39.47406       24.84254        4.45269
H         39.24526       27.31186        4.80174
H         39.23815       27.55877        3.05337
H         41.51068       26.51688        2.89721
H         41.51791       26.27003        4.64493
H         41.31174       28.74412        4.99525
H         41.30446       28.99095        3.24737
H         43.59139       27.72337        4.84607
H         43.56654       29.36865        4.18270
H         43.58406       27.97154        3.08937
