131

C          0.97328        0.14169       -0.09476
C          2.49053        0.13298       -0.09866
C          3.02048       -1.01052       -0.95389
C          4.54260       -1.02147       -0.95757
C          5.06003       -2.16817       -1.81313
C          6.57948       -2.17845       -1.81609
C          7.09243       -3.32505       -2.66983
C          8.61018       -3.33345       -2.67113
C          9.12350       -4.48034       -3.52652
C         10.63969       -4.48574       -3.52501
C         11.15086       -5.63037       -4.37915
C         12.66815       -5.63533       -4.38040
C         13.17743       -6.77930       -5.23653
C         14.69403       -6.78471       -5.23816
C         15.20380       -7.92714       -6.09539
C         16.72038       -7.93324       -6.09500
C         17.23022       -9.07439       -6.95395
C         18.74681       -9.07939       -6.95515
C         19.25677      -10.22050       -7.81415
C         20.77338      -10.22540       -7.81549
C         21.28339      -11.36653       -8.67449
C         22.80003      -11.37043       -8.67731
C         23.31000      -12.51174       -9.53639
C         24.82617      -12.51546       -9.53888
C         25.33646      -13.65616      -10.39839
C         26.85281      -13.65911      -10.40295
C         27.36354      -14.79870      -11.26334
C         28.88001      -14.80251      -11.26633
C         29.38975      -15.94259      -12.12683
C         30.90629      -15.94621      -12.12965
C         31.41665      -17.08603      -12.99030
C         32.93330      -17.08883      -12.99329
C         33.44309      -18.22782      -13.85571
C         34.96067      -18.23220      -13.85853
C         35.47214      -19.37121      -14.72064
C         36.98984      -19.37474      -14.72619
C         37.50168      -20.51665      -15.58711
C         39.01692      -20.52029      -15.59302
C         39.53658      -21.66204      -16.45263
C         41.05811      -21.66961      -16.46080
C         41.57644      -22.81275      -17.32286
C         43.09928      -22.82999      -17.33941
C         43.61344      -23.96884      -18.19930
H          0.60076        0.96490        0.52109
H          0.58055       -0.79638        0.31045
H          0.58294        0.26721       -1.10980
H          2.85869        0.03161        0.92887
H          2.86110        1.08979       -0.48444
H          2.65138       -0.90920       -1.98203
H          2.64696       -1.96771       -0.56955
H          4.91856       -1.12627        0.06750
H          4.92280       -0.06906       -1.34681
H          4.68815       -2.06603       -2.84013
H          4.68359       -3.12304       -1.42592
H          6.95462       -2.28152       -0.79026
H          6.95901       -1.22599       -2.20617
H          6.71955       -3.22380       -3.69596
H          6.71546       -4.27892       -2.28008
H          8.98488       -3.43664       -1.64525
H          8.98874       -2.38027       -3.06140
H          8.74957       -4.37479       -4.55179
H          8.74380       -5.43317       -3.13824
H         11.01408       -4.58861       -2.49914
H         11.01738       -3.53213       -3.91392
H         10.77665       -5.52785       -5.40499
H         10.77446       -6.58444       -3.99043
H         13.04264       -5.74002       -3.35489
H         13.04479       -4.68071       -4.76823
H         12.80249       -6.67516       -6.26229
H         12.80032       -7.73386       -4.84876
H         15.06896       -6.89066       -4.21270
H         15.07116       -5.82979       -5.62462
H         14.83022       -7.82054       -7.12127
H         14.82573       -8.88197       -5.70968
H         17.09406       -8.04120       -5.06923
H         17.09845       -6.97780       -6.47924
H         16.85562       -8.96707       -7.97942
H         16.85307      -10.02986       -6.56893
H         19.12141       -9.18655       -5.92967
H         19.12372       -8.12382       -7.34020
H         18.88207      -10.11321       -8.83958
H         18.87981      -11.17605       -7.42915
H         21.14813      -10.33258       -6.79007
H         21.15021       -9.26980       -8.20055
H         20.90768      -11.26005       -9.69964
H         20.90747      -12.32217       -8.28866
H         23.17581      -11.47678       -7.65216
H         23.17583      -10.41473       -9.06319
H         22.93417      -12.40504      -10.56139
H         22.93428      -13.46722       -9.15041
H         25.20248      -12.62223       -8.51462
H         25.20212      -11.56007       -9.92585
H         24.95978      -13.55045      -11.42327
H         24.96236      -14.61156      -10.01203
H         27.23004      -13.76582       -9.37820
H         27.22602      -12.70243      -10.78895
H         26.98775      -14.69091      -12.28851
H         26.98748      -15.75519      -10.87884
H         29.25638      -14.91069      -10.24165
H         29.25572      -13.84635      -11.65091
H         29.01381      -15.83473      -13.15172
H         29.01402      -16.89878      -11.74211
H         31.28202      -16.05420      -11.10466
H         31.28203      -14.99000      -12.51418
H         31.04056      -16.97820      -14.01517
H         31.04138      -18.04224      -12.60546
H         33.30901      -17.19785      -11.96838
H         33.30872      -16.13193      -13.37630
H         33.06754      -18.11849      -14.88006
H         33.06750      -19.18414      -13.47157
H         35.33606      -18.34111      -12.83346
H         35.33628      -17.27535      -14.24169
H         35.09496      -19.26239      -15.74489
H         35.09723      -20.32784      -14.33640
H         37.36622      -19.48154      -13.70104
H         37.36380      -18.41792      -15.11138
H         37.12414      -20.40828      -16.61122
H         37.12683      -21.47141      -15.20117
H         39.39649      -20.62535      -14.56795
H         39.39406      -19.56393      -15.97899
H         39.15785      -21.55573      -17.47666
H         39.16032      -22.61706      -16.06564
H         41.43288      -21.77507      -15.43541
H         41.43047      -20.71227      -16.84551
H         41.19359      -22.70334      -18.34551
H         41.19613      -23.76605      -16.93625
H         43.48120      -22.94051      -16.31788
H         43.47847      -21.87751      -17.72763
H         43.26630      -24.93331      -17.81489
H         44.70686      -23.97467      -18.20570
H         43.26374      -23.86492      -19.23149
