143

C          0.92648       -0.10801        0.01917
C          2.44366       -0.09710        0.01909
C          2.97178        0.94927       -0.95296
C          4.49279        0.96044       -0.95581
C          5.00755        2.00965       -1.92801
C          6.52657        2.02008       -1.93025
C          7.03806        3.06735       -2.90321
C          8.55575        3.07566       -2.90349
C          9.06709        4.12351       -3.87437
C         10.58395        4.13105       -3.87390
C         11.09436        5.17893       -4.84471
C         12.61107        5.18622       -4.84418
C         13.12123        6.23404       -5.81485
C         14.63789        6.23980       -5.81555
C         15.14804        7.28889       -6.78476
C         16.66469        7.29335       -6.78681
C         17.17440        8.34418       -7.75496
C         18.69122        8.34708       -7.75835
C         19.20122        9.39868       -8.72497
C         20.71789        9.40343       -8.72687
C         21.22789       10.45498       -9.69345
C         22.74453       10.45976       -9.69525
C         23.25455       11.51122      -10.66193
C         24.77115       11.51468      -10.66515
C         25.28114       12.56615      -11.63184
C         26.79777       12.56957      -11.63512
C         27.30779       13.62103      -12.60184
C         28.82434       13.62299      -12.60660
C         29.33444       14.67332      -13.57469
C         30.85114       14.67658      -13.57806
C         31.36119       15.72689      -14.54600
C         32.87790       15.73004      -14.54942
C         33.38784       16.78045      -15.51731
C         34.90448       16.78362      -15.52110
C         35.41448       17.83414      -16.48888
C         36.93115       17.83729      -16.49265
C         37.44142       18.88783      -17.46037
C         38.95830       18.89245      -17.46279
C         39.46884       19.94440      -18.42922
C         40.98614       19.94830      -18.43361
C         41.49779       20.99896      -19.40144
C         43.01603       21.00299      -19.40602
C         43.53116       22.05540      -20.37291
C         45.05117       22.06123      -20.37909
C         45.56772       23.11321      -21.34817
C         47.09001       23.12827      -21.36289
C         47.60472       24.17870      -22.33064
H          0.54557       -0.85783        0.71575
H          0.54135       -0.34023       -0.98010
H          0.53267        0.86995        0.31771
H          2.81787       -1.08936       -0.26038
H          2.80924        0.11486        1.03110
H          2.59661        1.94114       -0.67275
H          2.60313        0.73825       -1.96421
H          4.87384       -0.02779       -1.24117
H          4.86757        1.17417        0.05268
H          4.63037        3.00012       -1.64504
H          4.63662        1.79849       -2.93852
H          6.90708        1.03103       -2.21394
H          6.90064        2.23478       -0.92156
H          6.65992        4.05748       -2.62066
H          6.66634        2.85388       -3.91288
H          8.93535        2.08647       -3.18793
H          8.92906        3.28841       -1.89411
H          8.68836        5.11318       -3.59028
H          8.69468        3.91124       -4.88423
H         10.96316        3.14174       -4.15828
H         10.95681        4.34365       -2.86435
H         10.71551        6.16840       -4.56046
H         10.72179        4.96648       -5.85442
H         12.99005        4.19680       -5.12852
H         12.98379        5.39866       -3.83454
H         12.74341        7.22365       -5.52963
H         12.74753        6.02245       -6.82431
H         15.01559        5.25052       -6.10208
H         15.01175        6.45006       -4.80589
H         14.77135        8.27830       -6.49739
H         14.77320        7.07949       -7.79423
H         17.04134        6.30434       -7.07526
H         17.03965        7.50175       -5.77711
H         16.79893        9.33296       -7.46538
H         16.79849        8.13639       -8.76414
H         19.06688        7.35819       -8.04888
H         19.06715        8.55330       -6.74862
H         18.82437       10.38737       -8.43532
H         18.82644        9.19156       -9.73491
H         21.09477        8.41470       -9.01652
H         21.09262        9.61047       -7.71688
H         20.85091       11.44368       -9.40390
H         20.85321       10.24781      -10.70355
H         23.12145        9.47102       -9.98468
H         23.11924       10.66698       -8.68526
H         22.87865       12.50011      -10.37163
H         22.87880       11.30485      -11.67168
H         25.14697       10.52578      -10.95547
H         25.14696       11.72104       -9.65542
H         24.90533       13.55507      -11.34159
H         24.90533       12.35971      -12.64157
H         27.17354       11.58065      -11.92540
H         27.17366       12.77601      -10.62540
H         26.93321       14.61008      -12.31062
H         26.93067       13.41538      -13.61128
H         29.19903       12.63356      -12.89670
H         29.20145       13.82953      -11.59741
H         28.95878       15.66260      -13.28562
H         28.95855       14.46562      -14.58410
H         31.22681       13.68732      -13.86729
H         31.22703       14.88416      -12.56865
H         30.98572       16.71618      -14.25663
H         30.98522       15.51946      -15.55548
H         33.25346       14.74082      -14.83874
H         33.25386       15.93750      -13.53993
H         33.01238       17.76968      -15.22773
H         33.01165       16.57321      -16.52673
H         35.27992       15.79439      -15.81073
H         35.28066       16.99081      -14.51165
H         35.03904       18.82335      -16.19920
H         35.03829       17.62699      -17.49833
H         37.30659       16.84803      -16.78226
H         37.30724       18.04438      -15.48314
H         37.06475       19.87680      -17.17150
H         37.06631       18.67983      -18.47005
H         39.33460       17.90365      -17.75278
H         39.33317       19.09894      -16.45271
H         39.09303       20.93307      -18.13809
H         39.09233       19.73844      -19.43880
H         41.36100       18.95864      -18.72281
H         41.36162       20.15495      -17.42369
H         41.12156       21.98778      -19.11155
H         41.12091       20.79152      -20.41057
H         43.38996       20.01337      -19.69632
H         43.39078       21.20806      -18.39560
H         43.15364       23.04326      -20.08138
H         43.15283       21.84896      -21.38167
H         45.42450       21.07096      -20.66774
H         45.42516       22.26729      -19.36864
H         45.18791       24.10048      -21.05752
H         45.18723       22.90482      -22.35577
H         47.47113       22.14273      -21.65614
H         47.47186       23.33936      -20.35684
H         47.25075       23.97373      -23.34808
H         48.69572       24.19024      -22.34187
H         47.25147       25.17607      -22.04259
