149

C          1.00676       -0.00440        0.08715
C          2.52208       -0.00916        0.08023
C          3.05057       -0.59670       -1.22157
C          4.57407       -0.60150       -1.23618
C          5.09030       -1.19260       -2.53788
C          6.61061       -1.19536       -2.54715
C          7.12426       -1.78769       -3.84787
C          8.64206       -1.79026       -3.85451
C          9.15348       -2.38343       -5.15440
C         10.67103       -2.38557       -5.16018
C         11.18156       -2.98044       -6.45878
C         12.69864       -2.98388       -6.46298
C         13.20893       -3.58082       -7.76069
C         14.72572       -3.58430       -7.76463
C         15.23590       -4.17924       -9.06320
C         16.75257       -4.18449       -9.06609
C         17.26261       -4.77753      -10.36556
C         18.77930       -4.78274      -10.36841
C         19.28928       -5.37590      -11.66777
C         20.80589       -5.37932      -11.67131
C         21.31583       -5.97010      -12.97208
C         22.83258       -5.97346      -12.97518
C         23.34240       -6.56448      -14.27562
C         24.85954       -6.56860      -14.27816
C         25.36941       -7.15847      -15.57933
C         26.88630       -7.16144      -15.58296
C         27.39592       -7.75177      -16.88429
C         28.91238       -7.75550      -16.88780
C         29.42241       -8.34467      -18.18863
C         30.93851       -8.35074      -18.19245
C         31.44897       -8.93854      -19.49265
C         32.96545       -8.94268      -19.49672
C         33.47568       -9.53052      -20.79807
C         34.99238       -9.53392      -20.80177
C         35.50248      -10.12324      -22.10309
C         37.01932      -10.12674      -22.10665
C         37.52937      -10.71602      -23.40838
C         39.04722      -10.72190      -23.40985
C         39.55679      -11.31041      -24.71313
C         41.07454      -11.31407      -24.71530
C         41.58724      -11.90514      -26.01631
C         43.10275      -11.90959      -26.02129
C         43.61502      -12.50283      -27.32121
C         45.13437      -12.50767      -27.32809
C         45.64974      -13.09922      -28.62886
C         47.17171      -13.10535      -28.63866
C         47.68987      -13.69939      -29.94028
C         49.21348      -13.71066      -29.96121
C         49.72928      -14.30348      -31.26007
H          0.63093        0.41877        1.02486
H          0.61162       -1.02127       -0.01120
H          0.61345        0.59613       -0.74029
H          2.89091       -0.59553        0.92908
H          2.89266        1.01449        0.20330
H          2.67893       -0.01358       -2.07436
H          2.67943       -1.62208       -1.34794
H          4.95157       -1.18709       -0.38697
H          4.95075        0.42148       -1.11664
H          4.71619       -0.60894       -3.38778
H          4.71758       -2.21713       -2.65769
H          6.98885       -1.77875       -1.69812
H          6.98737       -0.17205       -2.43030
H          6.74924       -1.20427       -4.69798
H          6.74935       -2.81173       -3.96693
H          9.01903       -2.37292       -3.00494
H          9.01867       -0.76641       -3.73840
H          8.77802       -1.80118       -6.00493
H          8.77841       -3.40767       -5.27153
H         11.04731       -2.96691       -4.30942
H         11.04683       -1.36140       -5.04508
H         10.80697       -2.39854       -7.30999
H         10.80526       -4.00433       -6.57490
H         13.07373       -3.56502       -5.61133
H         13.07539       -1.96016       -6.34848
H         12.83407       -2.99991       -8.61248
H         12.83242       -4.60470       -7.87523
H         15.10068       -4.16640       -6.91374
H         15.10258       -2.56061       -7.64888
H         14.86219       -3.59620       -9.91401
H         14.85814       -5.20249       -9.17996
H         17.12632       -4.76859       -8.21609
H         17.13051       -3.16138       -8.94811
H         16.88897       -4.19334      -11.21548
H         16.88481       -5.80061      -10.48356
H         19.15314       -5.36692       -9.51841
H         19.15713       -3.75968      -10.25035
H         18.91438       -4.79249      -12.51784
H         18.91257       -6.39941      -11.78513
H         21.18068       -5.96385      -10.82224
H         21.18258       -4.35591      -11.55257
H         20.94110       -5.38593      -13.82088
H         20.93917       -6.99377      -13.09057
H         23.20728       -6.55771      -12.12559
H         23.20887       -4.95003      -12.85665
H         22.96826       -5.97947      -15.12435
H         22.96560       -7.58760      -14.39487
H         25.23390       -7.15339      -13.42989
H         25.23579       -5.54474      -14.15877
H         24.99400       -6.57405      -16.42806
H         24.99353       -8.18173      -15.69820
H         27.26159       -7.74531      -14.73450
H         27.26264       -6.13738      -15.46504
H         27.02123       -7.16668      -17.73274
H         27.01889       -8.77496      -17.00361
H         29.28781       -8.34105      -16.03926
H         29.28923       -6.73223      -16.76797
H         29.04851       -7.75847      -19.03707
H         29.04454       -9.36750      -18.31013
H         31.31271       -8.93787      -17.34388
H         31.31690       -7.32757      -18.06974
H         31.07479       -8.35068      -20.34156
H         31.07145       -9.96078      -19.61531
H         33.33960       -9.53058      -18.64865
H         33.34312       -7.92031      -19.37407
H         33.10088       -8.94359      -21.64587
H         33.09887      -10.55356      -20.91981
H         35.36715      -10.11958      -19.95343
H         35.36892       -8.51058      -20.68149
H         35.12760       -9.53749      -22.95129
H         35.12577      -11.14646      -22.22312
H         37.39412      -10.71226      -21.25827
H         37.39588       -9.10345      -21.98644
H         37.15550      -10.13013      -24.25624
H         37.15230      -11.73901      -23.52817
H         39.42022      -11.30660      -22.56461
H         39.42361       -9.69781      -23.29078
H         39.18233      -10.72608      -25.56095
H         39.18072      -12.33395      -24.83156
H         41.44863      -11.89860      -23.86629
H         41.45022      -10.29061      -24.59668
H         41.20990      -11.32095      -26.86510
H         41.20802      -12.92871      -26.13464
H         43.47709      -12.49264      -25.17069
H         43.47880      -10.88576      -25.90328
H         43.23900      -11.91928      -28.17071
H         43.23728      -13.52619      -27.43811
H         45.50720      -13.09148      -26.47747
H         45.50910      -11.48372      -27.20791
H         45.27312      -12.51453      -29.47717
H         45.27123      -14.12199      -28.74687
H         47.54395      -13.68782      -27.78700
H         47.54569      -12.08110      -28.51952
H         47.31033      -13.11558      -30.78798
H         47.30856      -14.72154      -30.05572
H         49.59344      -14.29572      -29.11543
H         49.59524      -12.68918      -29.84796
H         49.37969      -15.33365      -31.38180
H         50.82143      -14.30796      -31.26721
H         49.38150      -13.71919      -32.11794
