152

C          0.94731        0.04452       -0.13977
C          2.46298        0.04721       -0.13248
C          2.99104        1.39304        0.34345
C          4.51152        1.40029        0.35030
C          5.02504        2.74941        0.82532
C          6.54326        2.75522        0.83166
C          7.05396        4.10325        1.30787
C          8.57155        4.10623        1.31363
C          9.08213        5.45404        1.78825
C         10.59888        5.45735        1.79368
C         11.10897        6.80401        2.26985
C         12.62566        6.80724        2.27522
C         13.13572        8.15388        2.75140
C         14.65241        8.15762        2.75505
C         15.16243        9.50419        3.23129
C         16.67896        9.50781        3.23644
C         17.18884       10.85435        3.71089
C         18.70522       10.85722        3.71578
C         19.21569       12.20489        4.18853
C         20.73189       12.20918        4.19195
C         21.24233       13.55633        4.66668
C         22.75852       13.56103        4.66970
C         23.26935       14.90743        5.14480
C         24.78554       14.91178        5.14726
C         25.29590       16.25868        5.62221
C         26.81206       16.26306        5.62328
C         27.32281       17.61112        6.09524
C         28.83935       17.61576        6.09712
C         29.34831       18.96322        6.57294
C         30.86454       18.96886        6.57719
C         31.37590       20.31388        7.04643
C         32.89221       20.31873        7.05279
C         33.40285       21.66595        7.52554
C         34.91884       21.66976        7.53082
C         35.42940       23.01646        8.00345
C         36.94555       23.02113        8.00676
C         37.45588       24.36900        8.47922
C         38.97244       24.37272        8.48270
C         39.48249       25.72132        8.95332
C         40.99917       25.72524        8.95675
C         41.50928       27.07325        9.42907
C         43.02604       27.07786        9.43081
C         43.53658       28.42604        9.90329
C         45.05422       28.42989        9.90668
C         45.56490       29.77931       10.37974
C         47.08311       29.78519       10.38597
C         47.59666       31.13498       10.85907
C         49.11716       31.14288       10.86406
C         49.64524       32.49005       11.33618
C         51.16092       32.49407       11.33973
H          0.57022       -0.92301       -0.48196
H          0.56202        0.82104       -0.80871
H          0.55496        0.23186        0.86515
H          2.83731       -0.16410       -1.14129
H          2.83045       -0.75037        0.52428
H          2.61698        1.60490        1.35273
H          2.62176        2.19165       -0.31175
H          4.89184        1.19260       -0.65774
H          4.88702        0.60738        1.00927
H          4.64832        2.95982        1.83382
H          4.65301        3.54472        0.16777
H          6.92233        2.54812       -0.17671
H          6.91740        1.96118        1.48858
H          6.67677        4.31107        2.31675
H          6.68089        4.89804        0.65102
H          8.95010        3.89764        0.30561
H          8.94525        3.31260        1.97199
H          8.70413        5.66342        2.79656
H          8.70894        6.24846        1.13017
H         10.97709        5.24946        0.78514
H         10.97248        4.66234        2.45077
H         10.73094        7.01196        3.27844
H         10.73555        7.59916        1.61280
H         13.00373        6.59935        1.26664
H         12.99917        6.01217        2.93227
H         12.75868        8.36114        3.76050
H         12.76127        8.94917        2.09518
H         15.02946        7.95035        1.74597
H         15.02687        7.36231        3.41128
H         14.78442        9.71221        4.23979
H         14.78887       10.29928        2.57412
H         17.05719        9.29826        2.22826
H         17.05245        8.71297        3.89454
H         16.81122       11.06389        4.71986
H         16.81566       11.64891        3.05312
H         19.08367       10.64715        2.70772
H         19.07927       10.06422        4.37507
H         18.83884       12.41491        5.19686
H         18.84142       12.99808        3.53037
H         21.10948       12.00086        3.18334
H         21.10735       11.41510        4.84952
H         20.86524       13.76550        5.67559
H         20.86728       14.35124        4.00959
H         23.13568       13.35194        3.66073
H         23.13370       12.76627        5.32690
H         22.89108       15.11717        6.15240
H         22.89474       15.70235        4.48596
H         25.16279       14.70313        4.13874
H         25.16050       14.11742        5.80487
H         24.91993       16.46728        6.63147
H         24.91959       17.05366        4.96569
H         27.18789       16.05414        4.61367
H         27.18797       15.46974        6.28063
H         26.94721       17.81994        7.10407
H         26.94735       18.40416        5.43755
H         29.21539       17.40773        5.08797
H         29.21517       16.82142        6.75403
H         28.97216       19.17199        7.58046
H         28.97403       19.75765        5.91431
H         31.24526       18.75445        5.56974
H         31.23758       18.17571        7.23619
H         30.99502       20.52445        8.05832
H         31.00235       21.10817        6.38877
H         33.27046       20.10742        6.04502
H         33.26600       19.52461        7.71204
H         33.02424       21.87659        8.53411
H         33.02894       22.45917        6.86651
H         35.29737       21.45829        6.52285
H         35.29274       20.87591        8.18984
H         35.05219       23.22720        9.01182
H         35.05505       23.81101        7.34475
H         37.32281       22.81079        6.99832
H         37.32058       22.22737        8.66547
H         37.07885       24.57911        9.48772
H         37.08118       25.16227        7.82068
H         39.34943       24.16127        7.47447
H         39.34693       23.58018        9.14224
H         39.10549       25.93277        9.96156
H         39.10792       26.51384        8.29378
H         41.37597       25.51504        7.94816
H         41.37386       24.93186        9.61521
H         41.13330       27.28264       10.43815
H         41.13344       27.86677        8.77143
H         43.40173       26.86826        8.42168
H         43.40153       26.28413       10.08839
H         43.15938       28.63584       10.91171
H         43.16162       29.21914        9.24471
H         45.43043       28.22008        8.89835
H         45.42792       27.63676       10.56531
H         45.18622       29.98930       11.38719
H         45.19057       30.57172        9.72033
H         47.45979       29.57327        9.37778
H         47.45520       28.99090       11.04469
H         47.21751       31.34352       11.86739
H         47.22003       31.92707       10.19979
H         49.49004       30.92890        9.85479
H         49.48763       30.34595       11.52062
H         49.27315       32.70293       12.34551
H         49.27551       33.28611       10.67884
H         51.54855       31.71911       12.00912
H         51.53801       33.46257       11.67916
H         51.55092       32.30522       10.33417
