167

C          0.97165        0.14386       -0.12110
C          2.48863        0.13234       -0.12433
C          3.02048       -1.05294       -0.92104
C          4.54334       -1.06428       -0.92599
C          5.06238       -2.25083       -1.72561
C          6.58280       -2.26228       -1.73076
C          7.09635       -3.44694       -2.53193
C          8.61509       -3.45572       -2.53541
C          9.12691       -4.63863       -3.33753
C         10.64459       -4.64530       -3.33954
C         11.15573       -5.82750       -4.14163
C         12.67285       -5.83396       -4.14139
C         13.18347       -7.01593       -4.94340
C         14.70027       -7.02348       -4.94122
C         15.21030       -8.20476       -5.74435
C         16.72694       -8.21138       -5.74339
C         17.23719       -9.39203       -6.54708
C         18.75385       -9.39782       -6.54599
C         19.26441      -10.57717       -7.35104
C         20.78093      -10.58235       -7.35056
C         21.29027      -11.76266       -8.15517
C         22.80702      -11.77077       -8.15425
C         23.31650      -12.95083       -8.95871
C         24.83298      -12.95737       -8.95922
C         25.34341      -14.13679       -9.76377
C         26.86027      -14.14087       -9.76491
C         27.37111      -15.32058      -10.56955
C         28.88788      -15.32420      -10.57177
C         29.39809      -16.50439      -11.37644
C         30.91470      -16.50833      -11.37928
C         31.42475      -17.68783      -12.18504
C         32.94140      -17.69277      -12.18638
C         33.45102      -18.87178      -12.99280
C         34.96769      -18.87646      -12.99540
C         35.47754      -20.05496      -13.80260
C         36.99426      -20.05891      -13.80542
C         37.50453      -21.23665      -14.61344
C         39.02128      -21.24063      -14.61624
C         39.53155      -22.41914      -15.42314
C         41.04840      -22.42446      -15.42572
C         41.55805      -23.60291      -16.23428
C         43.07379      -23.60645      -16.23499
C         43.58565      -24.78444      -17.04624
C         45.10270      -24.78991      -17.04578
C         45.61261      -25.96753      -17.85456
C         47.13003      -25.97257      -17.85733
C         47.64228      -27.15039      -18.66561
C         49.16047      -27.15680      -18.66716
C         49.67528      -28.33375      -19.47736
C         51.19488      -28.34144      -19.47989
C         51.71336      -29.51933      -20.28961
C         53.23539      -29.53004      -20.29527
C         53.75515      -30.70900      -21.10752
C         55.27895      -30.73032      -21.11984
C         55.79515      -31.90574      -21.92965
H          0.59874        0.99678        0.45209
H          0.57627       -0.77262        0.32978
H          0.58075        0.21834       -1.14158
H          2.85544        0.08251        0.90770
H          2.85973        1.06896       -0.55695
H          2.65014       -1.00400       -1.95247
H          2.64756       -1.98943       -0.48824
H          4.92002       -1.11890        0.10275
H          4.92254       -0.13151       -1.36115
H          4.68945       -2.19860       -2.75595
H          4.68698       -3.18617       -1.29243
H          6.95952       -2.31859       -0.70209
H          6.96200       -1.32880       -2.16444
H          6.72259       -3.39230       -3.56187
H          6.72014       -4.38241       -2.09970
H          8.99106       -3.51281       -1.50645
H          8.99346       -2.52116       -2.96761
H          8.75288       -4.58248       -4.36727
H          8.75042       -5.57435       -2.90613
H         11.01976       -4.70235       -2.31027
H         11.02229       -3.71019       -3.77120
H         10.78250       -5.77035       -5.17160
H         10.77817       -6.76316       -3.71106
H         13.04655       -5.89154       -3.11162
H         13.05112       -4.89864       -4.57210
H         12.81133       -6.95762       -5.97370
H         12.80444       -7.95145       -4.51382
H         15.07270       -7.08288       -3.91108
H         15.07974       -6.08780       -5.37009
H         14.83718       -8.14601       -6.77428
H         14.83185       -9.14057       -5.31489
H         17.10019       -8.27063       -4.71355
H         17.10539       -7.27539       -6.17248
H         16.86402       -9.33291       -7.57697
H         16.85912      -10.32823       -6.11810
H         19.12707       -9.45817       -5.51619
H         19.13189       -8.46116       -6.97394
H         18.89074      -10.51722       -8.38074
H         18.88692      -11.51400       -6.92291
H         21.15470      -10.64221       -6.32093
H         21.15886       -9.64595       -7.77923
H         20.91737      -11.70279       -9.18466
H         20.91161      -12.69876       -7.72679
H         23.18054      -11.83103       -7.12440
H         23.18640      -10.83462       -8.58258
H         22.94189      -12.89170       -9.98841
H         22.93799      -13.88752       -8.52965
H         25.20680      -13.01651       -7.92959
H         25.21014      -12.02070       -9.38800
H         24.96891      -14.07789      -10.79299
H         24.96721      -15.07366       -9.33437
H         27.23528      -14.19962       -8.73562
H         27.23669      -13.20428      -10.19449
H         26.99575      -15.26225      -11.59866
H         26.99529      -16.25739      -10.13972
H         29.26368      -15.38236       -9.54288
H         29.26345      -14.38753      -11.00198
H         29.02205      -16.44633      -12.40533
H         29.02238      -17.44097      -10.94598
H         31.29052      -16.56772      -10.35040
H         31.29054      -15.57154      -11.80878
H         31.05004      -17.62750      -13.21433
H         31.04791      -18.62469      -11.75675
H         33.31640      -17.75315      -11.15720
H         33.31826      -16.75576      -12.61470
H         33.07539      -18.81175      -14.02171
H         33.07475      -19.80885      -12.56406
H         35.34336      -18.93715      -11.96652
H         35.34380      -17.93911      -13.42356
H         35.10161      -19.99436      -14.83139
H         35.10170      -20.99238      -13.37436
H         37.36995      -20.12018      -12.77658
H         37.36994      -19.12104      -14.23284
H         37.12864      -21.17523      -15.64227
H         37.12858      -22.17439      -14.18603
H         39.39708      -21.30082      -13.58739
H         39.39677      -20.30321      -15.04471
H         39.15602      -22.35860      -16.45196
H         39.15545      -23.35653      -14.99509
H         41.42471      -22.48692      -14.39705
H         41.42480      -21.48637      -15.85264
H         41.18312      -23.53889      -17.26323
H         41.17935      -24.54082      -15.80850
H         43.44957      -23.66895      -15.20665
H         43.45151      -22.66860      -16.66135
H         43.21164      -24.72182      -18.07010
H         43.20746      -25.72269      -16.61770
H         45.47667      -24.85237      -16.01655
H         45.47879      -23.85224      -17.47239
H         45.23659      -25.90520      -18.88327
H         45.23594      -26.90516      -17.42757
H         47.50460      -26.03359      -16.82810
H         47.50530      -25.03426      -18.28414
H         47.26730      -27.08775      -19.69457
H         47.26468      -28.08790      -18.23913
H         49.53357      -27.21973      -17.63744
H         49.53635      -26.21762      -19.09150
H         49.29981      -28.26936      -20.50608
H         49.29698      -29.27161      -19.05223
H         51.56737      -28.40316      -18.45000
H         51.56978      -27.40218      -19.90471
H         51.33644      -29.45590      -21.31785
H         51.33486      -30.45653      -19.86324
H         53.60816      -29.59262      -19.26560
H         53.60992      -28.59038      -20.71938
H         53.37578      -30.64321      -22.13465
H         53.37361      -31.64514      -20.68168
H         55.65905      -30.79864      -20.09391
H         55.66149      -29.79610      -21.54719
H         55.44728      -32.85306      -21.50547
H         56.88870      -31.91261      -21.93334
H         55.44841      -31.84605      -22.96628
