170

C          1.02388       -0.08900        0.05058
C          2.53974       -0.08130        0.05810
C          3.06870        0.49962        1.36313
C          4.59091        0.50646        1.37360
C          5.10661        1.08934        2.67922
C          6.62687        1.09601        2.68891
C          7.13859        1.67752        3.99436
C          8.65681        1.68208        4.00025
C          9.16796        2.26132        5.30635
C         10.68519        2.26548        5.31068
C         11.19536        2.84686        6.61553
C         12.71230        2.85106        6.61984
C         13.22286        3.43211        7.92468
C         14.73979        3.43520        7.92829
C         15.25051        4.01586        9.23308
C         16.76716        4.01736        9.23751
C         17.27710        4.59665       10.54314
C         18.79380        4.59833       10.54769
C         19.30376        5.17886       11.85286
C         20.82042        5.17930       11.85799
C         21.33075        5.75927       13.16316
C         22.84747        5.75864       13.16838
C         23.35785        6.33828       14.47370
C         24.87451        6.33916       14.47876
C         25.38415        6.92102       15.78338
C         26.90075        6.92319       15.78800
C         27.41059        7.50406       17.09292
C         28.92722        7.50618       17.09716
C         29.43727        8.08600       18.40244
C         30.95388        8.08932       18.40601
C         31.46400        8.66788       19.71186
C         32.98062        8.67308       19.71467
C         33.49064        9.25040       21.02110
C         35.00727        9.25427       21.02463
C         35.51729        9.83282       22.33052
C         37.03392        9.83671       22.33398
C         37.54398       10.41558       23.63971
C         39.06061       10.42105       23.64243
C         39.57068       10.99999       24.94813
C         41.08732       11.00581       24.95073
C         41.59735       11.58461       26.25655
C         43.11399       11.59190       26.25859
C         43.62395       12.17109       27.56432
C         45.14088       12.17872       27.56652
C         45.65067       12.75912       28.87063
C         47.17002       12.76629       28.87300
C         47.67783       13.34764       30.17910
C         49.19672       13.35177       30.18188
C         49.70904       13.93324       31.48581
C         51.22422       13.94201       31.49184
C         51.73831       14.52368       32.79756
C         53.25671       14.53014       32.80649
C         53.77370       15.11460       34.11357
C         55.29644       15.12294       34.12219
C         55.82496       15.70520       35.42613
C         57.34194       15.71333       35.43380
H          0.64976       -0.50712       -0.88900
H          0.62876        0.92766        0.15548
H          0.63341       -0.69484        0.87565
H          2.90758        0.50951       -0.78932
H          2.91213       -1.10437       -0.07287
H          2.69816       -0.09001        2.21061
H          2.69577        1.52293        1.49338
H          4.96795        1.09747        0.52934
H          4.97021       -0.51579        1.24850
H          4.73367        0.49970        3.52589
H          4.73102        2.11223        2.80674
H          7.00259        1.68815        1.84508
H          7.00531        0.07450        2.56247
H          6.76483        1.08620        4.83968
H          6.76257        2.69990        4.12243
H          9.03211        2.27471        3.15695
H          9.03448        0.66026        3.87234
H          8.79392        1.66885        6.15037
H          8.79120        3.28361        5.43516
H         11.05997        2.85678        4.46592
H         11.06246        1.24332        5.18386
H         10.82083        2.25548        7.46023
H         10.81830        3.86916        6.74253
H         13.08709        3.44232        5.77520
H         13.08935        1.82868        6.49316
H         12.84824        2.84097        8.76938
H         12.84643        4.45464        8.05182
H         15.11489        4.02619        7.08359
H         15.11612        2.41256        7.80136
H         14.87467        3.42534       10.07774
H         14.87506        5.03882        9.35963
H         17.14324        4.60887        8.39362
H         17.14283        2.99463        9.11007
H         16.90139        4.00494       11.38704
H         16.90150        5.61925       10.67091
H         19.16994        5.18910        9.70333
H         19.16948        3.57543       10.42111
H         18.92690        4.58872       12.69734
H         18.92884        6.20207       11.97892
H         21.19714        5.76966       11.01361
H         21.19514        4.15606       11.73149
H         20.95345        5.16937       14.00759
H         20.95660        6.78276       13.28932
H         23.22461        6.34892       12.32413
H         23.22169        4.73524       13.04180
H         22.98130        5.74764       15.31795
H         22.98295        7.36141       14.60042
H         25.25114        6.92886       13.63388
H         25.24984        5.31600       14.35338
H         25.00812        6.33116       16.62842
H         25.00832        7.94398       15.90887
H         27.27654        7.51386       14.94344
H         27.27675        5.90040       15.66162
H         27.03491        6.91331       17.93749
H         27.03466        8.52684       17.21944
H         29.30287        8.09745       16.25293
H         29.30315        6.48349       16.96996
H         29.06236        7.49407       19.24653
H         29.06063        9.10836       18.53026
H         31.32862        8.68204       17.56240
H         31.33061        7.06712       18.27729
H         31.09029        8.07416       20.55522
H         31.08615        9.68956       19.84143
H         33.35425        9.26756       18.87180
H         33.35854        7.65154       19.58417
H         33.11616        8.65662       21.86407
H         33.11352       10.27232       21.15098
H         35.38188        9.84723       20.18113
H         35.38427        8.23217       20.89570
H         35.14271        9.23991       23.17407
H         35.14027       10.85492       22.45938
H         37.40840       10.42951       21.49031
H         37.41100        8.81462       22.20527
H         37.17042        9.82207       24.48329
H         37.16598       11.43725       23.76901
H         39.43406       11.01463       22.79884
H         39.43870        9.39944       23.51308
H         39.19732       10.40642       25.79175
H         39.19244       12.02159       25.07744
H         41.46052       11.59957       24.10718
H         41.46563        9.98429       24.82121
H         41.22486       10.99023       27.09996
H         41.21815       12.60576       26.38650
H         43.48628       12.18620       25.41508
H         43.49322       10.57079       26.12873
H         43.25178       11.57694       28.40791
H         43.24464       13.19217       27.69397
H         45.51304       12.77174       26.72214
H         45.51993       11.15733       27.43778
H         45.27765       12.16739       29.71565
H         45.27287       13.78114       28.99909
H         47.54082       13.35586       28.02953
H         47.54532       11.74282       28.74770
H         47.30403       12.75721       31.02400
H         47.30122       14.36903       30.30409
H         49.56920       13.94171       29.33469
H         49.57188       12.32867       30.05544
H         49.33392       13.34183       32.33000
H         49.32987       14.95613       31.61198
H         51.60143       14.53151       30.64618
H         51.60503       12.91666       31.36440
H         51.36196       13.93246       33.64187
H         51.35923       15.54469       32.92246
H         53.63070       15.12060       31.96033
H         53.63392       13.50781       32.67998
H         53.39817       14.52298       34.95681
H         53.39364       16.13537       34.23782
H         55.66537       15.71200       33.27418
H         55.67006       14.10007       33.99243
H         55.45749       15.11595       36.27453
H         55.45279       16.72883       35.55581
H         57.73616       14.69695       35.33042
H         57.71470       16.13272       36.37256
H         57.73143       16.31802       34.60807
