176

C          0.96426        0.05660        0.08158
C          2.47768        0.05329        0.07778
C          3.00047       -0.37071       -1.28827
C          4.52005       -0.37259       -1.29420
C          5.03158       -0.79832       -2.65909
C          6.54943       -0.80004       -2.66452
C          7.05983       -1.22730       -4.02748
C          8.57653       -1.22884       -4.03231
C          9.08675       -1.65797       -5.39454
C         10.60328       -1.65949       -5.39929
C         11.11339       -2.08670       -6.76204
C         12.62990       -2.09011       -6.76621
C         13.14008       -2.51729       -8.12888
C         14.65660       -2.52073       -8.13301
C         15.16676       -2.94792       -9.49575
C         16.68326       -2.95326       -9.49926
C         17.19341       -3.37854      -10.86261
C         18.70992       -3.38195      -10.86672
C         19.22008       -3.80529      -12.23066
C         20.73658       -3.80677      -12.23537
C         21.24674       -4.23203      -13.59872
C         22.76325       -4.23352      -13.60342
C         23.27340       -4.66072      -14.96616
C         24.78991       -4.66413      -14.97027
C         25.30006       -5.09325      -16.33240
C         26.81657       -5.09668      -16.33650
C         27.32672       -5.52580      -17.69864
C         28.84323       -5.52920      -17.70275
C         29.35338       -5.95832      -19.06489
C         30.86989       -5.95982      -19.06959
C         31.38004       -6.39086      -20.43112
C         32.89655       -6.39234      -20.43583
C         33.40670       -6.82531      -21.79675
C         34.92321       -6.82489      -21.80207
C         35.43337       -7.25977      -23.16238
C         36.94987       -7.25742      -23.16831
C         37.46003       -7.69230      -24.52862
C         38.97653       -7.68995      -24.53456
C         39.48668       -8.12484      -25.89487
C         41.00319       -8.12440      -25.90019
C         41.51334       -8.55929      -27.26049
C         43.02985       -8.55886      -27.26581
C         43.54001       -8.99375      -28.62612
C         45.05652       -8.99331      -28.63145
C         45.56668       -9.42819      -29.99175
C         47.08320       -9.42776      -29.99710
C         47.59339       -9.86456      -31.35671
C         49.10990       -9.86605      -31.36147
C         49.62003      -10.30480      -32.72055
C         51.13655      -10.30630      -32.72529
C         51.64679      -10.74505      -34.08445
C         53.16348      -10.74467      -34.08988
C         53.67389      -11.18345      -35.44917
C         55.19174      -11.18517      -35.45459
C         55.70329      -11.62439      -36.81520
C         57.22286      -11.62820      -36.82050
C         57.74567      -12.06761      -38.18165
C         59.25908      -12.07093      -38.18544
H          0.58848        0.36120        1.06294
H          0.57334       -0.94116       -0.14260
H          0.57574        0.75382       -0.66776
H          2.84865       -0.63308        0.84767
H          2.85101        1.05377        0.32503
H          2.62843        0.31444       -2.05879
H          2.62833       -1.37170       -1.53541
H          4.89691       -1.05786       -0.52551
H          4.89693        0.62817       -1.05139
H          4.65712       -0.11361       -3.42978
H          4.65708       -1.79977       -2.90379
H          6.92525       -1.48414       -1.89389
H          6.92526        0.20154       -2.42227
H          6.68454       -0.54335       -4.79871
H          6.68451       -2.22911       -4.27023
H          8.95217       -1.91183       -3.26043
H          8.95215       -0.22678       -3.79123
H          8.71123       -0.97503       -6.16650
H          8.71124       -2.66006       -5.63569
H         10.97880       -2.34353       -4.62827
H         10.97889       -0.65775       -5.15676
H         10.73904       -1.40180       -7.53289
H         10.73667       -3.08786       -7.00524
H         13.00426       -2.77505       -5.99534
H         13.00667       -1.08899       -6.52294
H         12.76572       -1.83239       -8.89975
H         12.76336       -3.51846       -8.37210
H         15.03096       -3.20560       -7.36215
H         15.03335       -1.51956       -7.88983
H         14.79354       -2.26220      -10.26639
H         14.78889       -3.94850       -9.73958
H         17.05646       -3.64005       -8.72957
H         17.06115       -1.95302       -9.25406
H         16.81906       -2.69256      -11.63247
H         16.81667       -4.37936      -11.10722
H         19.08428       -4.06898      -10.09780
H         19.08665       -2.38146      -10.62073
H         18.84458       -3.11909      -12.99976
H         18.84448       -4.80635      -12.47603
H         21.11213       -4.49190      -11.46533
H         21.11213       -2.80536      -11.99139
H         20.87121       -3.54692      -14.36879
H         20.87118       -5.23345      -13.84266
H         23.13877       -4.91757      -12.83241
H         23.13881       -3.23177      -13.36085
H         22.89902       -3.97586      -15.73701
H         22.89669       -5.66190      -15.20932
H         25.16429       -5.34793      -14.19847
H         25.16662       -3.66262      -14.72848
H         24.92569       -4.40948      -17.10421
H         24.92334       -6.09477      -16.57416
H         27.19094       -5.78045      -15.56469
H         27.19329       -4.09516      -16.09474
H         26.95235       -4.84202      -18.47045
H         26.95000       -6.52732      -17.94041
H         29.21761       -6.21298      -16.93094
H         29.21994       -4.52768      -17.46098
H         28.97787       -5.27540      -19.83689
H         28.97780       -6.96043      -19.30599
H         31.24545       -6.64167      -18.29665
H         31.24543       -4.95737      -18.82986
H         31.00450       -5.70903      -21.20408
H         31.00450       -7.39331      -20.67083
H         33.27213       -7.07310      -19.66194
H         33.27207       -5.38955      -20.19752
H         33.03000       -6.14542      -22.57085
H         33.03232       -7.82869      -22.03440
H         35.29998       -7.50370      -21.02704
H         35.29754       -5.82117      -21.56581
H         35.05547       -6.58181      -23.93760
H         35.06017       -8.26406      -23.39800
H         37.32778       -7.93538      -22.39309
H         37.32305       -6.25312      -22.93270
H         37.08212       -7.01434      -25.30384
H         37.08684       -8.69660      -24.76424
H         39.35442       -8.36791      -23.75934
H         39.34973       -6.68566      -24.29894
H         39.10993       -7.44604      -26.66990
H         39.11235       -9.12856      -26.13112
H         41.37993       -8.80321      -25.12515
H         41.37755       -7.12068      -25.66393
H         41.13661       -7.88049      -28.03554
H         41.13899       -9.56301      -27.49674
H         43.40659       -9.23767      -26.49077
H         43.40421       -7.55515      -27.02956
H         43.16327       -8.31494      -29.40116
H         43.16565       -9.99746      -28.86237
H         45.43324       -9.67212      -27.85640
H         45.43088       -7.98960      -28.39519
H         45.18996       -8.74941      -30.76682
H         45.19231      -10.43191      -30.22798
H         47.45991      -10.10552      -29.22108
H         47.45756       -8.42373      -29.76219
H         47.21782       -9.18596      -32.13258
H         47.21784      -10.86798      -31.59225
H         49.48545      -10.54355      -30.58468
H         49.48542       -8.86228      -31.12739
H         49.24445       -9.62733      -33.49731
H         49.24449      -11.30858      -32.95459
H         51.51210      -10.98375      -31.94852
H         51.51203       -9.30252      -32.49123
H         51.26999      -10.06841      -34.86133
H         51.27233      -11.74939      -34.31777
H         53.53995      -11.42121      -33.31272
H         53.53762       -9.74025      -33.85626
H         53.29804      -10.50594      -36.22559
H         53.29810      -12.18707      -35.68290
H         55.56621      -11.86223      -34.67718
H         55.56622      -10.18135      -35.21979
H         55.32755      -10.94595      -37.59047
H         55.32528      -12.62695      -37.04871
H         57.59380      -12.30540      -36.04247
H         57.59610      -10.62502      -36.58406
H         57.37468      -11.39003      -38.95928
H         57.37236      -13.07085      -38.41755
H         59.64996      -11.07067      -37.97257
H         59.63487      -12.38660      -39.16327
H         59.64764      -12.75959      -37.42823
