179

C          1.04225        0.08664       -0.04260
C          2.56362        0.07205       -0.03628
C          3.08952       -0.34706        1.32779
C          4.61228       -0.35910        1.33253
C          5.12556       -0.77759        2.70112
C          6.64766       -0.78920        2.70512
C          7.15724       -1.21017        4.07531
C          8.67652       -1.22175        4.07840
C          9.18743       -1.64349        5.44476
C         10.70312       -1.65493        5.44691
C         11.21388       -2.07564        6.80907
C         12.73424       -2.08494        6.81179
C         13.24410       -2.50618        8.17629
C         14.75803       -2.51505        8.17818
C         15.26723       -2.93434        9.54425
C         16.78527       -2.94407        9.54646
C         17.29515       -3.36349       10.91193
C         18.81184       -3.37251       10.91402
C         19.32175       -3.79376       12.27885
C         20.83841       -3.80098       12.28160
C         21.34845       -4.22047       13.64690
C         22.86525       -4.22591       13.64999
C         23.37508       -4.64705       15.01507
C         24.89173       -4.65226       15.01838
C         25.40171       -5.07180       16.38375
C         26.91825       -5.07505       16.38781
C         27.42837       -5.49459       17.75306
C         28.94504       -5.49780       17.75702
C         29.45508       -5.91734       19.12230
C         30.97164       -5.91867       19.12699
C         31.48171       -6.33821       20.49222
C         32.99840       -6.33946       20.49674
C         33.50847       -6.75902       21.86203
C         35.02501       -6.75841       21.86736
C         35.53515       -7.17989       23.23194
C         37.05173       -7.18113       23.23651
C         37.56168       -7.60260       24.60130
C         39.07834       -7.60401       24.60580
C         39.58833       -8.02722       25.97000
C         41.10502       -8.02870       25.97452
C         41.61504       -8.45198       27.33871
C         43.13170       -8.45329       27.34319
C         43.64164       -8.87668       28.70739
C         45.15833       -8.87829       28.71165
C         45.66904       -9.30317       30.07661
C         47.18603       -9.30650       30.07957
C         47.69482       -9.72939       31.44129
C         49.21114       -9.73266       31.44519
C         49.72297      -10.15898       32.81191
C         51.23734      -10.16448       32.81692
C         51.74764      -10.58931       34.17941
C         53.26612      -10.59299       34.18351
C         53.77861      -11.02054       35.54846
C         55.29991      -11.02319       35.55039
C         55.81414      -11.44992       36.91798
C         57.33460      -11.45383       36.92406
C         57.84949      -11.88231       38.29144
C         59.37036      -11.89031       38.31011
C         59.88703      -12.31824       39.67547
H          0.67201        0.38794       -1.02310
H          0.66070        0.79003        0.70411
H          0.64654       -0.90735        0.18802
H          2.93790        1.06952       -0.29264
H          2.92403       -0.61936       -0.80616
H          2.71352       -1.34491        1.58372
H          2.72534        0.34348        2.09790
H          4.99532        0.63615        1.08289
H          4.98342       -1.05306        0.57073
H          4.74801       -1.77398        2.95576
H          4.75984       -0.08541        3.46771
H          7.02910        0.20611        2.45628
H          7.01740       -1.48183        1.94217
H          6.77696       -2.20681        4.32484
H          6.78868       -0.51720        4.83998
H          9.05861       -0.22433        3.82778
H          9.04705       -1.91294        3.31097
H          8.80605       -2.64033        5.69345
H          8.81777       -0.95215        6.21024
H         11.08695       -0.65691        5.19572
H         11.07521       -2.34567        4.67892
H         10.83416       -3.07505        7.05992
H         10.84376       -1.38468        7.57852
H         13.11276       -1.08487        6.56129
H         13.10341       -2.77588        6.04252
H         12.86144       -3.50437        8.42639
H         12.87056       -1.81555        8.94415
H         15.14000       -1.51758        7.92762
H         15.13052       -3.20560        7.41176
H         14.88785       -3.93262        9.79559
H         14.89718       -2.24351       10.31120
H         17.16565       -1.94610        9.29532
H         17.15624       -3.63520        8.77985
H         16.91459       -4.36107       11.16304
H         16.92407       -2.67201       11.67855
H         19.19212       -2.37429       10.66414
H         19.18305       -4.06272       10.14654
H         18.94243       -4.79247       12.52810
H         18.94949       -3.10428       13.04654
H         21.21776       -2.80257       12.03106
H         21.21071       -4.49140       11.51470
H         20.97009       -5.21938       13.89682
H         20.97514       -3.53080       14.41403
H         23.24318       -3.22639       13.40164
H         23.23861       -4.91434       12.88235
H         22.99700       -5.64640       15.26374
H         23.00154       -3.95843       15.78291
H         25.26987       -3.65329       14.76848
H         25.26523       -5.34186       14.25140
H         25.02464       -6.07131       16.63310
H         25.02726       -4.38298       17.15093
H         27.29539       -4.07553       16.13836
H         27.29301       -5.76387       15.62054
H         27.05143       -6.49412       18.00241
H         27.05375       -4.80580       18.52016
H         29.32196       -4.49824       17.50762
H         29.31979       -6.18659       16.98989
H         29.07916       -6.91744       19.37106
H         29.07937       -5.22936       19.88970
H         31.34754       -4.91854       18.87816
H         31.34750       -6.60663       18.35954
H         31.10593       -7.33833       20.74096
H         31.10589       -5.65024       21.25951
H         33.37412       -5.33931       20.24802
H         33.37427       -7.02740       19.72948
H         33.13360       -7.75970       22.11011
H         33.13159       -6.07192       22.62972
H         35.39972       -5.75737       21.62047
H         35.40195       -7.44453       21.09878
H         35.15934       -8.18037       23.47934
H         35.15913       -6.49297       24.00024
H         37.42752       -6.18066       22.98920
H         37.42750       -7.86804       22.46824
H         37.18585       -8.60312       24.84852
H         37.18595       -6.91575       25.36968
H         39.45413       -6.60312       24.35981
H         39.45424       -8.28985       23.83658
H         39.21259       -9.02815       26.21589
H         39.21254       -7.34146       26.73928
H         41.48085       -7.02781       25.72859
H         41.48086       -8.71450       25.20520
H         41.23926       -9.45285       27.58457
H         41.23923       -7.76618       28.10798
H         43.50753       -7.45251       27.09730
H         43.50751       -9.13917       26.57390
H         43.26586       -9.87754       28.95318
H         43.26598       -8.19093       29.47675
H         45.53421       -7.87692       28.46731
H         45.53421       -9.56290       27.94163
H         45.29164      -10.30408       30.32081
H         45.29335       -8.61764       30.84567
H         47.56227       -8.30653       29.83081
H         47.55974       -9.99275       29.30947
H         47.31825      -10.73041       31.68971
H         47.32086       -9.04322       32.21287
H         49.58999       -8.73106       31.20191
H         49.58772      -10.41994       30.67605
H         49.34329      -11.15984       33.05705
H         49.34760       -9.47136       33.58182
H         51.61545       -9.16362       32.56889
H         51.61076      -10.85017       32.04490
H         51.37223      -11.58947       34.42361
H         51.37482       -9.90378       34.94868
H         53.64302       -9.59167       33.93926
H         53.64070      -11.27721       33.41221
H         53.40332      -12.02101       35.79032
H         53.40538      -10.33498       36.31763
H         55.67373      -10.02379       35.30647
H         55.67143      -11.70847       34.78159
H         55.43447      -12.44878       37.15994
H         55.43690      -10.76405       37.68465
H         57.70733      -10.45330       36.68017
H         57.70511      -12.13793       36.15321
H         57.46696      -12.88161       38.53144
H         57.46923      -11.19717       39.05849
H         59.75382      -10.89168       38.07261
H         59.75150      -12.57641       37.54546
H         59.53723      -11.63140       40.45247
H         60.97772      -12.32177       39.68197
H         59.53491      -13.32459       39.92266
