182

C          0.96334       -0.13798        0.09576
C          2.47886       -0.13666        0.07849
C          3.00507       -1.22746       -0.84719
C          4.52526       -1.22357       -0.85987
C          5.04213       -2.31122       -1.78523
C          6.55735       -2.31071       -1.80073
C          7.07107       -3.39993       -2.72488
C          8.58687       -3.39634       -2.73766
C          9.09730       -4.48714       -3.66049
C         10.61499       -4.48297       -3.67281
C         11.12469       -5.57342       -4.59533
C         12.64181       -5.57017       -4.60583
C         13.15145       -6.66099       -5.52867
C         14.66829       -6.65794       -5.53926
C         15.17819       -7.74851       -6.46191
C         16.69483       -7.74684       -6.47112
C         17.20476       -8.83744       -7.39367
C         18.72151       -8.83702       -7.40129
C         19.23142       -9.92887       -8.32240
C         20.74816       -9.92851       -8.32993
C         21.25806      -11.02036       -9.25103
C         22.77482      -11.02128       -9.25705
C         23.28472      -12.11313      -10.17816
C         24.80148      -12.11533      -10.18266
C         25.31138      -13.20594      -11.10523
C         26.82814      -13.20940      -11.10823
C         27.33804      -14.30000      -12.03084
C         28.85480      -14.30352      -12.03377
C         29.36470      -15.39409      -12.95640
C         30.88147      -15.39757      -12.95937
C         31.39137      -16.48688      -13.88349
C         32.90812      -16.48908      -13.88799
C         33.41803      -17.57828      -14.81222
C         34.93478      -17.57924      -14.81819
C         35.44468      -18.66718      -15.74391
C         36.96144      -18.66933      -15.74845
C         37.47133      -19.75603      -16.67565
C         38.98809      -19.75822      -16.68015
C         39.49798      -20.84486      -17.60741
C         41.01474      -20.84704      -17.61193
C         41.52463      -21.93244      -18.54063
C         43.04139      -21.93460      -18.54517
C         43.55128      -23.02123      -19.47244
C         45.06804      -23.02214      -19.47846
C         45.57796      -24.10879      -20.40568
C         47.09462      -24.10971      -20.41179
C         47.60452      -25.19766      -21.33751
C         49.12139      -25.19854      -21.34342
C         49.63104      -26.28801      -22.26785
C         51.14819      -26.28995      -22.27218
C         51.65790      -27.37784      -23.19771
C         53.17564      -27.38016      -23.20232
C         53.68608      -28.46962      -24.12672
C         55.20191      -28.47383      -24.13026
C         55.71570      -29.56309      -25.05431
C         57.23093      -29.57170      -25.05907
C         57.74784      -30.66061      -25.98288
C         59.26821      -30.66498      -25.98663
C         59.79443      -31.75551      -26.91180
C         61.30983      -31.76324      -26.91834
H          0.58876        0.64529        0.76041
H          0.58130       -1.10194        0.44843
H          0.56478        0.04145       -0.90845
H          2.85825       -0.29373        1.09645
H          2.84188        0.84440       -0.25419
H          2.62576       -1.06654       -1.86250
H          2.64003       -2.20506       -0.51295
H          4.90966       -1.38665        0.15533
H          4.89562       -0.24564       -1.19359
H          4.65839       -2.15045       -2.80231
H          4.67242       -3.29135       -1.45345
H          6.94250       -2.47171       -0.78476
H          6.92834       -1.33250       -2.13519
H          6.68742       -3.23870       -3.74012
H          6.70150       -4.37728       -2.39011
H          8.97068       -3.55614       -1.72210
H          8.95649       -2.41924       -3.07363
H          8.71528       -4.32716       -4.67585
H          8.72945       -5.46392       -3.32430
H         10.99767       -4.64254       -2.65720
H         10.98367       -3.50588       -4.00871
H         10.74329       -5.41281       -5.61101
H         10.75516       -6.55016       -4.26015
H         13.02311       -5.73102       -3.59043
H         13.01133       -4.59381       -4.94113
H         12.76997       -6.50041       -6.54435
H         12.78172       -7.63772       -5.19347
H         15.04981       -6.81854       -4.52351
H         15.03814       -5.68121       -5.87443
H         14.79763       -7.58716       -7.47798
H         14.80714       -8.72517       -6.12760
H         17.07523       -7.90826       -5.45498
H         17.06594       -6.77023       -6.80539
H         16.82549       -8.67525       -8.41007
H         16.83260       -9.81388       -7.06013
H         19.10079       -8.99789       -6.38470
H         19.09364       -7.86100       -7.73610
H         18.85216       -9.76812       -9.33898
H         18.85926      -10.90486       -7.98746
H         21.12734      -10.08930       -7.31330
H         21.12040       -8.95254       -8.66482
H         20.87994      -10.85878      -10.26793
H         20.88477      -11.99621       -8.91697
H         23.15285      -11.18289       -8.24013
H         23.14821      -10.04546       -9.59109
H         22.90774      -11.95071      -11.19534
H         22.91029      -13.08884       -9.84498
H         25.17828      -12.27916       -9.16561
H         25.17610      -11.13926      -10.51448
H         24.93563      -13.04126      -12.12253
H         24.93572      -14.18191      -10.77428
H         27.20386      -13.37409      -10.09093
H         27.20384      -12.23344      -11.43918
H         26.96233      -14.13534      -13.04814
H         26.96233      -15.27596      -11.69986
H         29.23054      -14.46816      -11.01648
H         29.23049      -13.32755      -12.36476
H         28.98895      -15.22936      -13.97368
H         28.98903      -16.37008      -12.62549
H         31.25720      -15.56363      -11.94229
H         31.25715      -14.42116      -13.28901
H         31.01456      -16.32155      -14.90029
H         31.01676      -17.46344      -13.55311
H         33.28509      -16.65432      -12.87126
H         33.28259      -15.51245      -14.21845
H         33.04000      -17.41378      -15.82867
H         33.04464      -18.55506      -14.48095
H         35.31277      -17.74506      -13.80194
H         35.30823      -16.60205      -15.14816
H         35.06771      -18.50037      -16.76041
H         35.07021      -19.64427      -15.41493
H         37.33829      -18.83748      -14.73213
H         37.33601      -17.69184      -16.07614
H         37.09447      -19.58784      -17.69196
H         37.09676      -20.73353      -16.34800
H         39.36499      -19.92638      -15.66386
H         39.36261      -18.78069      -17.00783
H         39.12106      -20.67664      -18.62368
H         39.12347      -21.82241      -17.27978
H         41.39156      -21.01661      -16.59583
H         41.38934      -19.86910      -17.93824
H         41.14781      -21.76283      -19.55673
H         41.15003      -22.91038      -18.21435
H         43.41837      -22.10282      -17.52892
H         43.41584      -20.95703      -18.87280
H         43.17326      -22.85389      -20.48844
H         43.17787      -23.99891      -19.14391
H         45.44607      -23.18949      -18.46245
H         45.44144      -22.04446      -19.80697
H         45.19989      -23.94150      -21.42171
H         45.20452      -25.08647      -20.07715
H         47.47280      -24.27562      -19.39554
H         47.46806      -23.13243      -20.74157
H         47.22651      -25.03183      -22.35371
H         47.23114      -26.17486      -21.00756
H         49.49934      -25.36305      -20.32705
H         49.49467      -24.22181      -21.67466
H         49.25436      -26.12248      -23.28417
H         49.25688      -27.26428      -21.93729
H         51.52482      -26.45665      -21.25564
H         51.52252      -25.31301      -22.60121
H         51.28108      -27.21139      -24.21444
H         51.28333      -28.35503      -22.86874
H         53.55174      -27.54567      -22.18567
H         53.54943      -26.40369      -23.53287
H         53.30930      -28.30361      -25.14388
H         53.30940      -29.44623      -23.79710
H         55.57853      -28.64002      -23.11317
H         55.57858      -27.49744      -24.45987
H         55.33872      -29.39646      -26.07247
H         55.33648      -30.54017      -24.72576
H         57.60657      -29.73674      -24.03963
H         57.60880      -28.59310      -25.38626
H         57.37053      -30.49411      -27.00018
H         57.37044      -31.63718      -25.65285
H         59.64030      -30.83034      -24.96901
H         59.64032      -29.68797      -26.31549
H         59.42306      -31.59275      -27.93191
H         59.42306      -32.73550      -26.58501
H         61.70021      -30.80038      -27.26500
H         61.68452      -32.54652      -27.58290
H         61.70021      -31.94839      -25.91189
