200

C          0.90792       -0.09301        0.09024
C          2.42804       -0.08376        0.07721
C          2.95210        1.32724        0.28793
C          4.47214        1.33708        0.27694
C          4.98528        2.75188        0.48640
C          6.50360        2.76164        0.47545
C          7.01334        4.17392        0.68646
C          8.53104        4.18145        0.67521
C          9.04160        5.59442        0.88434
C         10.55830        5.60117        0.87297
C         11.06821        7.01418        1.08209
C         12.58476        7.02051        1.07269
C         13.09455        8.43310        1.28169
C         14.61105        8.43954        1.27238
C         15.12207        9.85193        1.48137
C         16.63794        9.85905        1.47407
C         17.14867       11.27066        1.68307
C         18.66434       11.27746        1.67777
C         19.17524       12.68886        1.88871
C         20.69100       12.69572        1.88346
C         21.20191       14.10711        2.09439
C         22.71765       14.11398        2.08915
C         23.22856       15.52536        2.30010
C         24.74431       15.53193        2.29681
C         25.25522       16.94331        2.50772
C         26.77097       16.94988        2.50445
C         27.28187       18.36156        2.71346
C         28.79763       18.36783        2.71213
C         29.30853       19.77922        2.92306
C         30.82428       19.78548        2.92179
C         31.33519       21.19687        3.13274
C         32.85094       21.20313        3.13150
C         33.36185       22.61452        3.34243
C         34.87760       22.62049        3.34313
C         35.38851       24.03217        3.55212
C         36.90427       24.03814        3.55277
C         37.41517       25.45012        3.75980
C         38.93092       25.45638        3.75849
C         39.44184       26.86807        3.96739
C         40.95758       26.87462        3.96416
C         41.46849       28.28630        4.17311
C         42.98424       28.29286        4.16978
C         43.49515       29.70455        4.37877
C         45.01089       29.71140        4.37353
C         45.52181       31.12278        4.58438
C         47.03755       31.12964        4.57913
C         47.54846       32.54132        4.78817
C         49.06423       32.54789        4.78481
C         49.57513       33.95928        4.99575
C         51.09080       33.96607        4.99054
C         51.60155       35.37739        5.20145
C         53.11743       35.38420        5.19617
C         53.62846       36.79659        5.40518
C         55.14497       36.80242        5.39986
C         55.65477       38.21530        5.60686
C         57.17134       38.22074        5.60340
C         57.68124       39.63433        5.80862
C         59.19799       39.63989        5.80518
C         59.70854       41.05315        6.01230
C         61.22628       41.05977        6.00704
C         61.73600       42.47266        6.21410
C         63.25435       42.48180        6.20714
C         63.76749       43.89692        6.41450
C         65.28754       43.90643        6.40557
C         65.81158       45.31802        6.61233
C         67.33173       45.32666        6.60324
H          0.53602       -1.10575       -0.06104
H          0.51418        0.54623       -0.70584
H          0.53089        0.27804        1.04815
H          2.78942       -0.47820       -0.87974
H          2.80599       -0.74508        0.86570
H          2.58768        1.72401        1.24422
H          2.57327        1.98986       -0.50082
H          4.84255        0.94617       -0.67822
H          4.85678        0.68250        1.06817
H          4.61814        3.14659        1.44200
H          4.60393        3.41025       -0.30413
H          6.87282        2.36986       -0.48049
H          6.88714        2.10386        1.26527
H          6.64608        4.56671        1.64273
H          6.63172        4.83276       -0.10335
H          8.90000        3.78854       -0.28026
H          8.91423        3.52485        1.46611
H          8.67308        5.98776        1.83991
H          8.65883        6.25142        0.09346
H         10.92694        5.20811       -0.08256
H         10.94115        4.94444        1.66388
H         10.69852        7.40783        2.03698
H         10.68652        7.67063        0.29037
H         12.95476        6.62672        0.11786
H         12.96668        6.36401        1.86438
H         12.72529        8.82700        2.23651
H         12.71346        9.08968        0.49004
H         14.98126        8.04589        0.31774
H         14.99302        7.78328        2.06408
H         14.75072       10.24656        2.43537
H         14.74123       10.50828        0.68892
H         17.00907        9.46417        0.52015
H         17.01842        9.20243        2.26658
H         16.77613       11.66588        2.63637
H         16.76902       11.92682        0.88982
H         19.03681       10.88349        0.72396
H         19.04395       10.62020        2.47016
H         18.80278       13.08282        2.84258
H         18.79568       13.34617        1.09639
H         21.06349       12.30177        0.92964
H         21.07057       12.03842        2.67582
H         20.82942       14.50106        3.04825
H         20.82235       14.76443        1.30207
H         23.09018       13.72003        1.13532
H         23.09718       13.45665        2.88150
H         22.85493       15.91985        3.25326
H         22.85012       16.18235        1.50695
H         25.11796       15.13743        1.34366
H         25.12272       14.87493        3.08998
H         24.88157       17.33782        3.46091
H         24.87680       17.60029        1.71458
H         27.14471       16.55410        1.55189
H         27.14929       16.29394        3.29856
H         26.90703       18.75788        3.66537
H         26.90464       19.01716        1.91857
H         29.17244       17.97278        1.75967
H         29.17488       17.71116        3.50613
H         28.93369       20.17423        3.87557
H         28.93130       20.43591        2.12912
H         31.19913       19.39047        1.96933
H         31.20151       19.12878        3.71578
H         30.96034       21.59187        4.08523
H         30.95797       21.85357        2.33878
H         33.22582       20.80813        2.17901
H         33.22814       20.54643        3.92546
H         32.98589       23.01010        4.29422
H         32.98574       23.27087        2.54763
H         35.25364       22.22363        2.39189
H         35.25364       21.96520        4.13882
H         35.01251       24.42909        4.50331
H         35.01244       24.68741        2.75636
H         37.28029       23.63995        2.60210
H         37.28032       23.38397        4.34939
H         37.04026       25.84778        4.71110
H         37.03802       26.10462        2.96393
H         39.30572       25.05999        2.80654
H         39.30820       24.80084        4.55337
H         39.06813       27.26389        4.91999
H         39.06347       27.52395        3.17331
H         41.33126       26.47880        3.01154
H         41.33597       26.21873        4.75822
H         41.09483       28.68214        5.12569
H         41.09009       28.94218        3.37900
H         43.35788       27.89703        3.21719
H         43.36267       27.63699        4.96388
H         43.12260       30.09980        5.33203
H         43.11565       30.36078        3.58549
H         45.38335       29.31741        3.41966
H         45.39048       29.05412        5.16586
H         45.14935       31.51678        5.53825
H         45.14222       31.78006        3.79206
H         47.41011       30.73439        3.62588
H         47.41705       30.47340        5.37242
H         47.17480       32.93712        5.74073
H         47.17005       33.19722        3.99406
H         49.43780       32.15335        3.83166
H         49.44268       31.89092        5.57799
H         49.20261       34.35321        5.94960
H         49.19559       34.61658        4.20342
H         51.46335       33.57217        4.03667
H         51.47043       33.30881        5.78286
H         51.22931       35.77149        6.15529
H         51.22218       36.03478        4.40909
H         53.49000       34.98908        4.24287
H         53.49705       34.72812        5.98945
H         53.25593       37.19132        6.35847
H         53.24878       37.45221        4.61185
H         55.51664       36.40615        4.44695
H         55.52367       36.14754        6.19406
H         55.28128       38.61209        6.55909
H         55.27632       38.86972        4.81178
H         57.54464       37.82286        4.65170
H         57.54943       37.56742        6.39944
H         57.30787       40.03218        6.76030
H         57.30308       40.28761        5.01258
H         59.57114       39.24304        4.85286
H         59.57615       38.98528        6.60024
H         59.33604       41.44902        6.96518
H         59.32887       41.70769        5.21801
H         61.59709       40.66275        5.05390
H         61.60439       40.40407        6.80113
H         61.36435       42.86817        7.16753
H         61.35485       43.12760        5.42075
H         63.62378       42.08466        5.25341
H         63.63342       41.82520        7.00020
H         63.39587       44.28972        7.36845
H         63.38403       44.55006        5.62154
H         65.65322       43.50649        5.45107
H         65.66513       43.24630        7.19698
H         65.44785       45.71623        7.56682
H         65.43594       45.97649        5.82034
H         67.72312       44.69030        7.40278
H         67.70362       46.33983        6.75169
H         67.71115       44.95184        5.64775
