203

C          0.93015       -0.05162       -0.07171
C          2.44754       -0.05967       -0.08157
C          2.97879       -1.48737       -0.06142
C          4.50001       -1.49892       -0.06985
C          5.01569       -2.92875       -0.05124
C          6.53504       -2.93996       -0.05910
C          7.04691       -4.36975       -0.03855
C          8.56485       -4.37726       -0.04683
C          9.07617       -5.80584       -0.02793
C         10.59348       -5.81129       -0.03640
C         11.10416       -7.23961       -0.01710
C         12.62102       -7.24479       -0.02280
C         13.13130       -8.67307       -0.00418
C         14.64808       -8.67818       -0.00989
C         15.15830      -10.10642        0.00704
C         16.67499      -10.11136        0.00290
C         17.18515      -11.53960        0.01942
C         18.70182      -11.54439        0.01563
C         19.21184      -12.97264        0.03046
C         20.72851      -12.97751        0.02808
C         21.23852      -14.40576        0.04234
C         22.75514      -14.41072        0.04071
C         23.26491      -15.83904        0.05377
C         24.78151      -15.84382        0.05367
C         25.29161      -17.27203        0.06610
C         26.80832      -17.27623        0.06575
C         27.31863      -18.70443        0.07838
C         28.83474      -18.70884        0.07895
C         29.34575      -20.13663        0.08974
C         30.86207      -20.14180        0.09201
C         31.37191      -21.57051        0.10284
C         32.88846      -21.57568        0.10435
C         33.39842      -23.00379        0.11468
C         34.91517      -23.00861        0.11495
C         35.42534      -24.43691        0.12562
C         36.94203      -24.44162        0.12567
C         37.45208      -25.86988        0.13593
C         38.96871      -25.87466        0.13783
C         39.47870      -27.30296        0.14648
C         40.99533      -27.30775        0.15048
C         41.50511      -28.73570        0.15927
C         43.02165      -28.74048        0.16319
C         43.53077      -30.16930        0.17506
C         45.04920      -30.17563        0.17956
C         45.55723      -31.60116        0.18800
C         47.07413      -31.60683        0.19728
C         47.58609      -33.03548        0.20558
C         49.10224      -33.03897        0.21352
C         49.61165      -34.46816        0.22012
C         51.12815      -34.47253        0.22978
C         51.63853      -35.90070        0.23611
C         53.15449      -35.90530        0.24635
C         53.66524      -37.33396        0.25525
C         55.18206      -37.33906        0.26745
C         55.69214      -38.76731        0.27622
C         57.20888      -38.77214        0.28831
C         57.71918      -40.20059        0.29892
C         59.23615      -40.20614        0.30943
C         59.74702      -41.63485        0.32023
C         61.26453      -41.64069        0.33230
C         61.77807      -43.06913        0.34094
C         63.29679      -43.07462        0.35288
C         63.81361      -44.50326        0.35895
C         65.33455      -44.51297        0.37119
C         65.85161      -45.94433        0.37601
C         67.37452      -45.96896        0.38825
C         67.88718      -47.39688        0.39283
H          0.55571        0.97569       -0.08662
H          0.54492       -0.54530        0.82636
H          0.53327       -0.57527       -0.94747
H          2.82217        0.48985        0.78947
H          2.81052        0.46023       -0.97541
H          2.60096       -2.03693       -0.93277
H          2.61126       -2.00818        0.83166
H          4.88226       -0.95529        0.80272
H          4.87264       -0.98118       -0.96287
H          4.63678       -3.47478       -0.92380
H          4.64624       -3.44747        0.84130
H          6.91784       -2.39599        0.81318
H          6.90864       -2.42446       -0.95252
H          6.66677       -4.91608       -0.91048
H          6.67662       -4.88725        0.85498
H          8.94641       -3.83290        0.82592
H          8.93670       -3.85976       -0.93983
H          8.69606       -6.35091       -0.90045
H          8.70613       -6.32374        0.86534
H         10.97460       -5.26641        0.83623
H         10.96488       -5.29370       -0.92958
H         10.72499       -7.78431       -0.89059
H         10.73198       -7.75803        0.87520
H         13.00027       -6.70072        0.85100
H         12.99350       -6.72631       -0.91488
H         12.75191       -9.21696       -0.87806
H         12.75898       -9.19185        0.88782
H         15.02714       -8.13512        0.86464
H         15.02065       -8.15845       -0.90121
H         14.78006      -10.64912       -0.86807
H         14.78505      -10.62656        0.89785
H         17.05332       -9.56895        0.87814
H         17.04843       -9.59112       -0.88778
H         16.80713      -12.08206       -0.85596
H         16.81171      -12.06007        0.90997
H         19.07982      -11.00297        0.89165
H         19.07547      -11.02303       -0.87431
H         18.83456      -13.51365       -0.84612
H         18.83744      -13.49440        0.91983
H         21.10569      -12.43679        0.90488
H         21.10295      -12.45541       -0.86110
H         20.86167      -14.94635       -0.83469
H         20.86374      -14.92797        0.93130
H         23.13198      -13.87089        0.91820
H         23.13016      -13.88786       -0.84778
H         22.88905      -16.37849       -0.82437
H         22.88928      -16.36243        0.94163
H         25.15739      -15.30466        0.93200
H         25.15730      -15.32014       -0.83401
H         24.91567      -17.81130       -0.81212
H         24.91611      -17.79572        0.95389
H         27.18391      -16.73661        0.94386
H         27.18359      -16.75265       -0.82215
H         26.94317      -19.24344       -0.79998
H         26.94256      -19.22802        0.96590
H         29.21069      -18.17112        0.95799
H         29.21148      -18.18428       -0.80777
H         28.97098      -20.67525       -0.79029
H         28.96862      -20.66266        0.97596
H         31.23622      -19.60415        0.97170
H         31.23950      -19.61666       -0.79405
H         30.99694      -22.10804       -0.77663
H         30.99462      -22.09530        0.98908
H         33.26365      -21.03802        0.98393
H         33.26509      -21.05055       -0.78204
H         33.02304      -23.54180       -0.76454
H         33.02262      -23.52902        1.00153
H         35.29091      -22.47068        0.99408
H         35.29121      -22.48381       -0.77193
H         35.04960      -24.97502       -0.75340
H         35.04962      -24.96175        1.01262
H         37.31774      -23.90376        1.00485
H         37.31783      -23.91654       -0.76118
H         37.07725      -26.40727       -0.74392
H         37.07530      -26.39535        1.02211
H         39.34328      -25.33826        1.01840
H         39.34574      -25.34816       -0.74765
H         39.10516      -27.83892       -0.73479
H         39.10063      -27.82989        1.03126
H         41.36875      -26.77185        1.03184
H         41.37354      -26.78078       -0.73421
H         41.13207      -29.27205       -0.72217
H         41.12699      -29.26294        1.04388
H         43.39493      -28.20417        1.04591
H         43.40017      -28.21443       -0.72148
H         43.15877      -30.70582       -0.70899
H         43.15187      -30.69545        1.05515
H         45.42051      -29.63751        1.05994
H         45.42702      -29.64785       -0.70712
H         45.18759      -32.13751       -0.69367
H         45.17806      -32.12933        1.07245
H         47.44504      -31.07044        1.07972
H         47.45540      -31.07752       -0.68631
H         47.21332      -33.56895       -0.67770
H         47.20387      -33.56212        1.08810
H         49.47172      -32.50526        1.09700
H         49.48145      -32.51030       -0.66917
H         49.24143      -35.00109       -0.66387
H         49.23042      -34.99683        1.10201
H         51.49844      -33.93872        1.11413
H         51.50979      -33.94229       -0.65207
H         51.26856      -36.43407       -0.64802
H         51.25702      -36.42953        1.11774
H         53.52502      -35.37123        1.13024
H         53.53766      -35.37767       -0.63585
H         53.29621      -37.86886       -0.62864
H         53.28248      -37.86260        1.13745
H         55.55045      -36.80462        1.15170
H         55.56441      -36.81034       -0.61424
H         55.32335      -39.30159       -0.60805
H         55.30922      -39.29576        1.15795
H         57.57756      -38.23660        1.17188
H         57.59150      -38.24454       -0.59410
H         57.34921      -40.73631       -0.58398
H         57.33701      -40.72739        1.18201
H         59.60564      -39.66988        1.19221
H         59.61780      -39.67906       -0.57372
H         59.37765      -42.17006       -0.56324
H         59.36377      -42.16186        1.20273
H         61.63236      -41.10564        1.21649
H         61.64645      -41.11141       -0.54939
H         61.40897      -43.60319       -0.54332
H         61.39483      -43.59770        1.22251
H         63.66364      -42.54039        1.23795
H         63.67743      -42.54313       -0.52799
H         63.44332      -45.03517       -0.52614
H         63.42930      -45.03281        1.23945
H         65.70076      -43.97963        1.25697
H         65.71522      -43.98032       -0.50890
H         65.47748      -46.47320       -0.50931
H         65.46329      -46.47242        1.25567
H         67.74876      -45.44245        1.27389
H         67.76292      -45.44305       -0.49163
H         67.53093      -47.93475        1.27727
H         68.98052      -47.40695        0.40158
H         67.54513      -47.93532       -0.49686
