209

C          0.91312        0.01198       -0.03521
C          2.42945        0.02150       -0.03683
C          2.95624        0.96737       -1.10793
C          4.47733        0.97703       -1.11266
C          4.99271        1.92501       -2.18319
C          6.51123        1.93335       -2.18646
C          7.02345        2.88238       -3.25514
C          8.54085        2.88934       -3.25681
C          9.05248        3.83934       -4.32360
C         10.56936        3.84561       -4.32446
C         11.08008        4.79548       -5.39105
C         12.59707        4.80363       -5.39109
C         13.10718        5.75375       -6.45824
C         14.62425        5.76122       -6.45761
C         15.13394        6.71263       -7.52280
C         16.65037        6.72030       -7.52187
C         17.16035        7.67325       -8.58611
C         18.67757        7.68213       -8.58402
C         19.18717        8.63592       -9.64840
C         20.70437        8.64438       -9.64614
C         21.21390        9.59810      -10.71027
C         22.73091        9.60559      -10.70929
C         23.24052       10.56005      -11.77268
C         24.75766       10.56567      -11.77297
C         25.26720       11.51939      -12.83716
C         26.78427       11.52373      -12.83887
C         27.29380       12.47835      -13.90223
C         28.81095       12.48230      -13.90409
C         29.32048       13.43744      -14.96702
C         30.83764       13.44031      -14.96984
C         31.34714       14.39638      -16.03198
C         32.86430       14.39902      -16.03500
C         33.37379       15.35571      -17.09661
C         34.89099       15.35835      -17.09955
C         35.40047       16.31606      -18.16024
C         36.91763       16.31880      -18.16317
C         37.42716       17.27712      -19.22323
C         38.94427       17.27981      -19.22632
C         39.45381       18.23882      -20.28572
C         40.97097       18.24028      -20.28982
C         41.48042       19.19830      -21.35027
C         42.99757       19.19964      -21.35449
C         43.50710       20.15731      -22.41514
C         45.02426       20.15980      -22.41831
C         45.53373       21.11658      -23.47985
C         47.05097       21.11911      -23.48282
C         47.56036       22.07560      -24.54479
C         49.07763       22.07810      -24.54774
C         49.58707       23.03442      -25.60974
C         51.10423       23.03723      -25.61261
C         51.61376       23.99397      -26.67412
C         53.13100       23.99790      -26.67621
C         53.64087       24.95580      -27.73656
C         55.15769       24.95919      -27.73979
C         55.66730       25.91647      -28.79986
C         57.18372       25.91917      -28.80317
C         57.69363       26.87619      -29.86441
C         59.21087       26.87881      -29.86816
C         59.72171       27.83625      -30.92823
C         61.23847       27.83845      -30.93353
C         61.74865       28.79602      -31.99360
C         63.26598       28.80015      -31.99821
C         63.77733       29.75933      -33.05702
C         65.29557       29.76369      -33.06184
C         65.80928       30.72460      -34.11955
C         67.32923       30.73080      -34.12638
C         67.84566       31.69437      -35.18406
C         69.36850       31.70805      -35.19909
C         69.88105       32.66915      -36.25403
H          0.53916       -0.66779        0.73460
H          0.52626       -0.31956       -1.00471
H          0.51912        1.01332        0.16876
H          2.80325       -0.99262       -0.21813
H          2.79618        0.33202        0.94810
H          2.58197        1.98259       -0.92619
H          2.58686        0.65802       -2.09364
H          4.85809       -0.03475       -1.29982
H          4.85334        1.28870       -0.13021
H          4.61633        2.93916       -1.99862
H          4.62110        1.61577       -3.16833
H          6.89108        0.92139       -2.37430
H          6.88634        2.24296       -1.20306
H          6.64596        3.89546       -3.06825
H          6.65074        2.57376       -4.23981
H          8.91964        1.87715       -3.44563
H          8.91495        3.19715       -2.27245
H          8.67461        4.85182       -4.13507
H          8.67935        3.53188       -5.30829
H         10.94863        2.83197       -4.51416
H         10.94343        4.15437       -3.33861
H         10.70104        5.80799       -5.20352
H         10.70804        4.48735       -6.37622
H         12.97649        3.79161       -5.57898
H         12.96931        5.11212       -4.40642
H         12.72804        6.76572       -6.26977
H         12.73509        5.44510       -7.44259
H         15.00334        4.74720       -6.64644
H         14.99619        6.06868       -5.47190
H         14.75472        7.72456       -7.33317
H         14.76277        6.40545       -8.50843
H         17.03012        5.70894       -7.71261
H         17.02299        7.02634       -6.53637
H         16.78039        8.68480       -8.39605
H         16.78930        7.36664       -9.57200
H         19.05747        6.67114       -8.77482
H         19.04853        7.98937       -7.59842
H         18.80733        9.64707       -9.45773
H         18.81638        8.32874      -10.63388
H         21.08439        7.63301       -9.83653
H         21.07543        8.95138       -8.66052
H         20.83428       10.60954      -10.51914
H         20.84194        9.29201      -11.69601
H         23.11001        8.59410      -10.90191
H         23.10350        9.91008       -9.72335
H         22.86272       11.57156      -11.57977
H         22.86723       10.25595      -12.75844
H         25.13565        9.55391      -11.96520
H         25.13076       10.87052      -10.78756
H         24.88995       12.53136      -12.64444
H         24.89289       11.21494      -13.82254
H         27.16098       10.51173      -13.03309
H         27.15898       11.82692      -11.85338
H         26.91743       13.49015      -13.70797
H         26.91926       12.17503      -14.88758
H         29.18743       11.47035      -14.09827
H         29.18553       12.78544      -12.91848
H         28.94459       14.44947      -14.77188
H         28.94507       13.13539      -15.95262
H         31.21308       12.42840      -15.16624
H         31.21345       13.74134      -13.98410
H         30.97175       15.40823      -15.83535
H         30.97152       14.09510      -17.01743
H         33.23987       13.38764      -16.23206
H         33.23974       14.69999      -15.04909
H         32.99803       16.36744      -16.89989
H         32.99847       15.05514      -18.08260
H         35.26630       14.34671      -17.29722
H         35.26674       15.65797      -16.11337
H         35.02504       17.32767      -17.96215
H         35.02489       16.01615      -19.14606
H         37.29325       15.30764      -18.36162
H         37.29302       16.61834      -17.17687
H         37.05129       18.28855      -19.02509
H         37.05167       16.97775      -20.20965
H         39.31974       16.26839      -19.42563
H         39.32029       17.57778      -18.23971
H         39.07938       19.25037      -20.08575
H         39.07702       17.94148      -21.27221
H         41.34553       17.22854      -20.48873
H         41.34749       18.53859      -19.30351
H         41.10588       20.20968      -21.15119
H         41.10394       18.89961      -22.33639
H         43.37215       18.18780      -21.55335
H         43.37407       19.49814      -20.36828
H         43.13168       21.16900      -22.21739
H         43.13122       19.85782      -23.40135
H         45.40007       19.14809      -22.61504
H         45.39970       20.46054      -21.43235
H         45.15818       22.12807      -23.28284
H         45.15840       20.81564      -24.46564
H         47.42630       20.10749      -23.67961
H         47.42628       21.42020      -22.49736
H         47.18506       23.08713      -24.34799
H         47.18504       21.77450      -25.53034
H         49.45286       21.06666      -24.74450
H         49.45302       22.37922      -23.56210
H         49.21151       24.04624      -25.41299
H         49.21207       22.73333      -26.59539
H         51.48032       22.02556      -25.80914
H         51.47967       23.33806      -24.62665
H         51.23709       25.00557      -26.47831
H         51.23918       23.69246      -27.66012
H         53.50749       22.98637      -26.87291
H         53.50548       24.29819      -25.68967
H         53.26467       25.96720      -27.53857
H         53.26504       24.65643      -28.72289
H         55.53316       23.94735      -27.93729
H         55.53318       25.25827      -26.75318
H         55.29161       26.92810      -28.60216
H         55.29146       25.61707      -29.78600
H         57.56148       24.90594      -29.00058
H         57.55978       26.21991      -27.81741
H         57.31823       27.88741      -29.66822
H         57.31829       26.57509      -30.85036
H         59.58658       25.86727      -30.06563
H         59.58673       27.17781      -28.88188
H         59.34639       28.84811      -30.72980
H         59.34409       27.53805      -31.91433
H         61.61343       26.82493      -31.13228
H         61.61495       28.13719      -29.94575
H         61.37255       29.80740      -31.79590
H         61.37250       28.49695      -32.97973
H         63.64136       27.78855      -32.19671
H         63.64141       29.09745      -31.01113
H         63.40064       30.77033      -32.85764
H         63.40066       29.46142      -34.04348
H         65.66999       28.75191      -33.26117
H         65.67003       30.05902      -32.07380
H         65.43112       31.73489      -33.91825
H         65.43112       30.42762      -35.10597
H         67.70253       29.71879      -34.32684
H         67.70261       31.02446      -33.13740
H         67.46530       32.70315      -34.98046
H         67.46525       31.39797      -36.16955
H         69.74856       30.70074      -35.40372
H         69.74859       32.00536      -34.21515
H         69.53168       32.37487      -37.24945
H         70.97395       32.67602      -36.26160
H         69.53172       33.68761      -36.05347
