23

C          1.06589       -0.04585       -0.00668
C          2.58151       -0.04899       -0.00469
C          3.10812       -0.62933        1.30402
C          4.63014       -0.63412        1.31384
C          5.14776       -1.21387        2.62251
C          6.67305       -1.22154        2.64021
C          7.18116       -1.80016        3.94565
H          0.68855        0.36939       -0.94332
H          0.67589        0.56048        0.81846
H          0.67354       -1.06336        0.09954
H          2.95047        0.97306       -0.13535
H          2.94824       -0.63995       -0.84957
H          2.73401       -1.65191        1.43358
H          2.73464       -0.03866        2.14809
H          5.00617        0.38835        1.18547
H          5.00628       -1.22627        0.46942
H          4.77004       -2.23544        2.74971
H          4.77050       -0.62215        3.46412
H          7.05317       -0.20254        2.51818
H          7.05325       -1.81521        1.80321
H          6.83161       -1.20663        4.79778
H          8.27290       -1.80592        3.95867
H          6.83163       -2.83013        4.07807
