212

C          0.90502        0.00495        0.00507
C          2.42242        0.00800        0.01066
C          2.94589        1.04973        0.98880
C          4.46690        1.05657        0.99528
C          4.98036        2.10002        1.97228
C          6.49787        2.10558        1.97749
C          7.00897        3.14981        2.95248
C          8.52698        3.15313        2.95649
C          9.03619        4.19888        3.92936
C         10.55262        4.20255        3.93276
C         11.06292        5.24791        4.90599
C         12.57969        5.25269        4.90782
C         13.08959        6.29818        5.88115
C         14.60631        6.30335        5.88297
C         15.11649        7.34856        6.85605
C         16.63301        7.35482        6.85675
C         17.14331        8.39995        7.82982
C         18.65973        8.40523        7.83162
C         19.16998        9.44896        8.80619
C         20.68642        9.45370        8.80848
C         21.19665       10.49778        9.78275
C         22.71309       10.50390        9.78357
C         23.22331       11.54916       10.75654
C         24.73973       11.55554       10.75714
C         25.24994       12.60113       11.72985
C         26.76642       12.60605       11.73181
C         27.27653       13.65136       12.70489
C         28.79305       13.65642       12.70678
C         29.30319       14.70017       13.68148
C         30.81963       14.70520       13.68354
C         31.32987       15.74763       14.65954
C         32.84635       15.75272       14.66136
C         33.35650       16.79507       15.63761
C         34.87298       16.80014       15.63938
C         35.38324       17.84228       16.61572
C         36.89966       17.84621       16.61907
C         37.40975       18.88727       17.59671
C         38.92630       18.89087       17.59991
C         39.43646       19.93308       18.57635
C         40.95291       19.93541       18.58120
C         41.46317       20.97664       19.55846
C         42.97963       20.97995       19.56224
C         43.48989       22.02126       20.53946
C         45.00639       22.02601       20.54157
C         45.51646       23.06697       21.51935
C         47.03298       23.07066       21.52280
C         47.54313       24.11314       22.49885
C         49.05960       24.11673       22.50229
C         49.56984       25.16055       23.47687
C         51.08630       25.16560       23.47881
C         51.59645       26.20944       24.45340
C         53.11288       26.21463       24.45528
C         53.62308       27.25726       25.43113
C         55.13952       27.26363       25.43164
C         55.64985       28.30574       26.40797
C         57.16639       28.31223       26.40836
C         57.67658       29.35330       27.38589
C         59.19330       29.35981       27.38629
C         59.70323       30.40250       28.36262
C         61.21997       30.41012       28.36140
C         61.73044       31.45414       29.33615
C         63.24674       31.46192       29.33520
C         63.75433       32.50445       30.31156
C         65.27389       32.51102       30.31194
C         65.78499       33.55386       31.28841
C         67.30250       33.56080       31.29214
C         67.81596       34.60422       32.26917
C         69.33698       34.61112       32.27559
C         69.86044       35.65419       33.25230
C         71.37785       35.65860       33.25643
H          0.53025       -0.74104       -0.69541
H          0.51799        0.98363       -0.29366
H          0.51566       -0.22996        1.00008
H          2.79388        0.22298       -0.99756
H          2.79167       -0.98507        0.29022
H          2.57504        0.83615        1.99884
H          2.57508        2.04433        0.71207
H          4.84454        1.27347       -0.01145
H          4.84451        0.06622        1.27771
H          4.60522        1.88560        2.98113
H          4.60521        3.09256        1.69197
H          6.87446        2.32009        0.96970
H          6.87444        1.11481        2.26046
H          6.63361        2.93587        3.96077
H          6.63358        4.14105        2.66987
H          8.90199        3.36658        1.94767
H          8.90190        2.16294        3.24022
H          8.66083        3.98610        4.93744
H          8.66083        5.18941        3.64530
H         10.92890        4.41567        2.92436
H         10.92910        3.21207        4.21694
H         10.68839        5.03447        5.91496
H         10.68622        6.23875        4.62281
H         12.95426        5.46653        3.89933
H         12.95627        4.26233        5.19086
H         12.71500        6.08483        6.88988
H         12.71276        7.28863        5.59789
H         14.98090        6.51672        4.87435
H         14.98346        5.31292        6.16619
H         14.74306        7.13425        7.86494
H         14.73841        8.33903        6.57397
H         17.00670        7.56906        5.84790
H         17.01108        6.36459        7.13902
H         16.76869        8.18652        8.83838
H         16.76625        9.39039        7.54674
H         19.03431        8.61996        6.82336
H         19.03686        7.41443        8.11341
H         18.79529        9.23414        9.81454
H         18.79299       10.43971        8.52449
H         21.06100        9.66856        7.80008
H         21.06375        8.46381        9.08984
H         20.82308       10.28221       10.79137
H         20.81852       11.48832        9.50178
H         23.08666       10.71827        8.77468
H         23.09075        9.51361       10.06487
H         22.84976       11.33502       11.76533
H         22.84512       12.53943       10.47423
H         25.11329       11.76981        9.74822
H         25.11780       10.56569       11.03935
H         24.87539       12.38768       12.73858
H         24.87286       13.59127       11.44675
H         27.14126       12.81923       10.72306
H         27.14337       11.61562       12.01512
H         26.90185       13.43773       13.71354
H         26.89923       14.64209       12.42226
H         29.16777       13.87038       11.69896
H         29.17008       12.66555       12.98871
H         28.92851       14.48516       14.68982
H         28.92597       15.69133       13.40023
H         31.19428       14.92127       12.67559
H         31.19672       13.71394       13.96398
H         30.95526       15.53125       15.66761
H         30.95247       16.73904       14.37957
H         33.22095       15.96878       13.65372
H         33.22335       14.76141       14.94185
H         32.98190       16.57863       16.64564
H         32.97931       17.78647       15.35752
H         35.24775       17.01622       14.63189
H         35.24986       15.80880       15.91978
H         35.00742       17.62679       17.62344
H         35.00734       18.83373       16.33467
H         37.27539       18.06291       15.61167
H         37.27564       16.85439       16.89898
H         37.03410       18.67017       18.60416
H         37.03372       19.87925       17.31686
H         39.30237       19.10649       16.59248
H         39.30194       17.89929       17.88107
H         39.05928       19.71856       19.58391
H         39.06185       20.92470       18.29431
H         41.32978       20.15136       17.57389
H         41.32777       18.94348       18.86182
H         41.08728       20.75973       20.56594
H         41.08756       21.96816       19.27882
H         43.35543       21.19681       18.55473
H         43.35545       19.98828       19.84200
H         43.11506       21.80358       21.54717
H         43.11302       23.01284       20.26052
H         45.38102       22.24392       19.53394
H         45.38339       21.03416       20.82041
H         45.14081       22.85036       22.52652
H         45.14050       24.05882       21.23938
H         47.40883       23.28627       20.51500
H         47.40878       22.07962       21.80353
H         47.16709       23.89819       23.50684
H         47.16727       25.10458       22.21749
H         49.43539       24.33090       21.49416
H         49.43543       23.12596       22.78463
H         49.19511       24.94584       24.48492
H         49.19293       26.15150       23.19508
H         51.46097       25.38059       22.47043
H         51.46372       24.17436       23.75995
H         51.22128       25.99507       25.46193
H         51.21947       27.20034       24.17158
H         53.48740       26.43078       23.44712
H         53.49005       25.22353       24.73565
H         53.24961       27.04006       26.43937
H         53.24477       28.24847       25.15185
H         55.51309       27.48068       24.42344
H         55.51767       26.27254       25.71108
H         55.27632       28.08869       27.41595
H         55.27172       29.29687       26.12847
H         57.53965       28.53078       25.40031
H         57.54475       27.32071       26.68635
H         57.30315       29.13489       28.39384
H         57.29826       30.34469       27.10764
H         59.56659       29.57699       26.37800
H         59.57141       28.36871       27.66575
H         59.33108       30.18446       29.37096
H         59.32402       31.39311       28.08359
H         61.59210       30.62672       27.35219
H         61.59905       29.41931       28.64140
H         61.35739       31.23706       30.34493
H         61.35036       32.44441       29.05586
H         63.61852       31.67987       28.32666
H         63.62558       30.47115       29.61394
H         63.38334       32.28707       31.31967
H         63.37852       33.49546       30.03158
H         65.64695       32.72806       29.30345
H         65.65157       31.51977       30.59144
H         65.40964       33.33712       32.29619
H         65.40719       34.54479       31.00767
H         67.67651       33.77607       30.28307
H         67.67878       32.56844       31.57159
H         67.43839       34.38737       33.27593
H         67.43829       35.59454       31.98669
H         69.70780       34.82329       31.26526
H         69.70781       33.61690       32.55370
H         69.49009       35.43982       34.26106
H         69.49009       36.64669       32.97216
H         71.76604       34.68054       33.55567
H         71.75262       36.40558       33.95587
H         71.76604       35.89296       32.26084
