218

C          0.88419       -0.03207        0.10058
C          2.40215       -0.02239        0.09910
C          2.93562        1.38603       -0.12921
C          4.45718        1.39612       -0.12888
C          4.97485        2.80955       -0.35683
C          6.49325        2.82062       -0.35650
C          7.00658        4.23193       -0.58498
C          8.52485        4.24045       -0.58414
C          9.03644        5.65146       -0.81075
C         10.55391        5.65788       -0.80982
C         11.06487        7.06829       -1.03664
C         12.58198        7.07364       -1.03755
C         13.09255        8.48350       -1.26350
C         14.60972        8.48883       -1.26502
C         15.12015        9.89878       -1.49116
C         16.63636        9.90351       -1.49396
C         17.14605       11.31381       -1.71942
C         18.66348       11.31860       -1.72210
C         19.17289       12.72888       -1.94652
C         20.68946       12.73324       -1.94919
C         21.19950       14.14405       -2.17200
C         22.71614       14.14845       -2.17470
C         23.22618       15.55929       -2.39738
C         24.74281       15.56368       -2.40010
C         25.25284       16.97451       -2.62278
C         26.76946       16.97890       -2.62548
C         27.27942       18.38971       -2.84829
C         28.79605       18.39427       -2.85105
C         29.30605       19.80480       -3.07567
C         30.82269       19.80923       -3.07827
C         31.33278       21.21944       -3.30489
C         32.84954       21.22409       -3.30593
C         33.35952       22.63418       -3.53266
C         34.87631       22.63889       -3.53333
C         35.38611       24.04914       -3.76003
C         36.90280       24.05397       -3.76065
C         37.41284       25.46430       -3.98546
C         38.92947       25.46927       -3.98442
C         39.43948       26.87982       -4.20903
C         40.95612       26.88459       -4.20949
C         41.46619       28.29536       -4.43253
C         42.98283       28.30031       -4.43137
C         43.49286       29.71088       -4.65582
C         45.00948       29.71592       -4.65447
C         45.51947       31.12646       -4.87916
C         47.03604       31.13179       -4.87612
C         47.54635       32.54248       -5.10084
C         49.06287       32.54729       -5.09909
C         49.57330       33.95665       -5.32456
C         51.08977       33.96278       -5.32278
C         51.60005       35.37252       -5.55164
C         53.11612       35.37788       -5.54716
C         53.62525       36.78790       -5.77740
C         55.14240       36.79382       -5.77407
C         55.65238       38.20319       -6.00485
C         57.16940       38.20792       -6.00363
C         57.68038       39.61672       -6.23628
C         59.19704       39.62120       -6.23535
C         59.70689       41.03044       -6.46950
C         61.22351       41.03601       -6.46998
C         61.73380       42.44559       -6.70103
C         63.25092       42.45112       -6.69984
C         63.76177       43.86056       -6.93266
C         65.27913       43.86687       -6.93142
C         65.79073       45.27655       -7.16585
C         67.30899       45.28533       -7.16300
C         67.82201       46.69592       -7.39742
C         69.34177       46.70677       -7.39641
C         69.86042       48.11754       -7.63199
C         71.38280       48.12811       -7.63412
C         71.91371       49.53676       -7.86921
C         73.43123       49.54564       -7.87081
H          0.51189       -1.04595        0.26503
H          0.49391        0.32809       -0.85657
H          0.49383        0.61212        0.89483
H          2.77214       -0.69267       -0.68678
H          2.77189       -0.40987        1.05666
H          2.56053        2.05629        0.65562
H          2.56262        1.77301       -1.08698
H          4.83446        0.73272       -0.91595
H          4.83239        1.01464        0.82767
H          4.59867        3.47635        0.42915
H          4.60093        3.19485       -1.31389
H          6.87276        2.15552       -1.14237
H          6.86995        2.43894        0.60084
H          6.63022        4.89872        0.20073
H          6.63281        4.61575       -1.54236
H          8.90296        3.57603       -1.37087
H          8.90053        3.85708        0.37256
H          8.65999        6.31682       -0.02401
H          8.66223        6.03599       -1.76753
H         10.93122        4.99293       -1.59652
H         10.92911        5.27418        0.14694
H         10.68922        7.73348       -0.24935
H         10.68953        7.45302       -1.99297
H         12.95795        6.40872       -1.82493
H         12.95779        6.68884       -0.08107
H         12.71669        9.14878       -0.47634
H         12.71701        8.86810       -2.22054
H         14.98490        7.82385       -2.05249
H         14.98581        8.10402       -0.30866
H         14.74490       10.56335       -0.70352
H         14.74353       10.28409       -2.44781
H         17.01150        9.23950       -2.28244
H         17.01368        9.51755       -0.53876
H         16.77149       11.97754       -0.93010
H         16.76891       11.69993       -2.67447
H         19.03747       10.65494       -2.51121
H         19.03969       10.93186       -0.76704
H         18.79817       13.39220       -1.15716
H         18.79590       13.11545       -2.90142
H         21.06405       12.07080       -2.73930
H         21.06646       12.34555       -0.99473
H         20.82490       14.80645       -1.38185
H         20.82254       14.53182       -3.12644
H         23.09078       13.48611       -2.96487
H         23.09310       13.76065       -1.22026
H         22.85156       16.22163       -1.60720
H         22.84922       15.94710       -3.35181
H         25.11743       14.90135       -3.19029
H         25.11978       15.17587       -1.44568
H         24.87821       17.63686       -1.83261
H         24.87589       17.36232       -3.57721
H         27.14409       16.31651       -3.41563
H         27.14646       16.59118       -1.67105
H         26.90486       19.05218       -2.05826
H         26.90248       18.77737       -3.80283
H         29.17085       17.73082       -3.64040
H         29.17309       18.00762       -1.89611
H         28.93126       20.46818       -2.28642
H         28.92914       20.19110       -4.03065
H         31.19747       19.14483       -3.86658
H         31.19958       19.42393       -2.12282
H         30.95720       21.88430       -2.51731
H         30.95688       21.60406       -4.26099
H         33.22505       20.55915       -4.09351
H         33.22533       20.83934       -2.34982
H         32.98374       23.29909       -2.74511
H         32.98386       23.01882       -4.48878
H         35.25194       21.97410       -4.32087
H         35.25218       22.25437       -2.57724
H         35.01032       24.71388       -2.97247
H         35.01022       24.43401       -4.71660
H         37.27863       23.38994       -4.54895
H         37.27851       23.66798       -2.80493
H         37.03604       26.12835       -3.19778
H         37.03803       25.84962       -4.94171
H         39.30632       24.80522       -4.77209
H         39.30420       25.08388       -3.02814
H         39.06346       27.54347       -3.42061
H         39.06389       27.26582       -5.16472
H         41.33205       26.22175       -4.99863
H         41.33177       26.49759       -3.25423
H         41.08940       28.95851       -3.64406
H         41.09145       28.68192       -5.38834
H         43.35979       27.63640       -5.21909
H         43.35743       27.91475       -3.47510
H         43.11585       30.37478       -3.86810
H         43.11829       30.09641       -5.61210
H         45.38656       29.05190       -5.44207
H         45.38400       29.33054       -3.69811
H         45.14146       31.79082       -4.09230
H         45.14588       31.51130       -5.83611
H         47.41408       30.46737       -5.66299
H         47.40969       30.74697       -3.91918
H         47.16901       33.20644       -4.31342
H         47.17175       32.92759       -6.05738
H         49.43992       31.88198       -5.88597
H         49.43698       32.16218       -4.14190
H         49.19490       34.62296       -4.53991
H         49.19858       34.34195       -6.28684
H         51.46778       33.29638       -6.10775
H         51.46389       33.58051       -4.36473
H         51.22094       36.03947       -4.76681
H         51.22664       35.75409       -6.50980
H         53.49452       34.71087       -6.33150
H         53.48927       34.99712       -4.58876
H         53.24735       37.45500       -4.99271
H         53.25044       37.16831       -6.73548
H         55.52066       36.12597       -6.55777
H         55.51540       36.41342       -4.81577
H         55.27566       38.87082       -5.22008
H         55.27820       38.58474       -6.96293
H         57.54600       37.53928       -6.78745
H         57.54358       37.82765       -5.04500
H         57.30392       40.28535       -5.45227
H         57.30572       39.99705       -7.19459
H         59.57402       38.95179       -7.01846
H         59.57180       39.24232       -5.27651
H         59.33071       41.69902       -5.68533
H         59.33099       41.41000       -7.42761
H         61.59955       40.36856       -7.25545
H         61.59925       40.65430       -5.51265
H         61.35686       43.11296       -5.91637
H         61.35897       42.82664       -7.65900
H         63.62760       41.78234       -7.48362
H         63.62511       42.07093       -5.74132
H         63.38428       44.52887       -6.14893
H         63.38677       44.24011       -7.89115
H         65.65595       43.19711       -7.71427
H         65.65309       43.48776       -5.97233
H         65.41146       45.94568       -6.38366
H         65.41634       45.65408       -8.12541
H         67.68641       44.61510       -7.94517
H         67.68167       44.90610       -6.20347
H         67.44239       47.36438       -6.61489
H         67.44623       47.07297       -8.35654
H         69.71702       46.03539       -8.17859
H         69.71440       46.32661       -6.43720
H         69.48282       48.78604       -6.84861
H         69.48327       48.49493       -8.59033
H         71.75389       47.45501       -8.41681
H         71.75458       47.74497       -6.67576
H         71.54454       50.20956       -7.08650
H         71.54447       49.91906       -8.82792
H         73.82256       49.18990       -6.91217
H         73.80453       50.55913       -8.03968
H         73.82250       48.89832       -8.66238
