224

C          0.90277        0.05443        0.06953
C          2.42077        0.04169        0.07442
C          2.95473       -0.54669        1.37482
C          4.47891       -0.55911        1.38172
C          4.99998       -1.14763        2.68550
C          6.52003       -1.16033        2.69344
C          7.03561       -1.75023        3.99750
C          8.55443       -1.76167        4.00408
C          9.06691       -2.34968        5.30605
C         10.58552       -2.36216        5.30875
C         11.09720       -2.94675        6.61167
C         12.61493       -2.95453        6.61492
C         13.12584       -3.54093        7.91772
C         14.64297       -3.54800        7.92034
C         15.15324       -4.13523        9.22243
C         16.67009       -4.14140        9.22541
C         17.17997       -4.72965       10.52691
C         18.69710       -4.73561       10.52949
C         19.20748       -5.32371       11.83131
C         20.72292       -5.32820       11.83405
C         21.23370       -5.91638       13.13566
C         22.75030       -5.92002       13.13861
C         23.26081       -6.50800       14.44100
C         24.77749       -6.51203       14.44442
C         25.28783       -7.10049       15.74601
C         26.80423       -7.10668       15.74887
C         27.31422       -7.69533       17.05076
C         28.83090       -7.70014       17.05335
C         29.34065       -8.28630       18.35573
C         30.86212       -8.29077       18.36157
C         31.36756       -8.87753       19.66076
C         32.88423       -8.88157       19.66417
C         33.39417       -9.46770       20.96701
C         34.91088       -9.47090       20.97101
C         35.42054      -10.05598       22.27421
C         36.93716      -10.05941       22.27839
C         37.44699      -10.64460       23.58143
C         38.96363      -10.64691       23.58558
C         39.47401      -11.23377       24.88758
C         40.99085      -11.23722       24.89069
C         41.50150      -11.82428       26.19266
C         43.01796      -11.82449       26.19758
C         43.52803      -12.41368       27.49873
C         45.04462      -12.41353       27.50414
C         45.55445      -13.00474       28.80438
C         47.07088      -13.00277       28.81087
C         47.58064      -13.59427       30.11091
C         49.09706      -13.59095       30.11750
C         49.60765      -14.18434       31.41659
C         51.12430      -14.17875       31.42399
C         51.63435      -14.77364       32.72260
C         53.15101      -14.76785       32.73034
C         53.66090      -15.36232       34.02913
C         55.17755      -15.35565       34.03765
C         55.68747      -15.94967       35.33664
C         57.20414      -15.94404       35.34460
C         57.71422      -16.53684       36.64415
C         59.23091      -16.53162       36.65193
C         59.74119      -17.12565       37.95093
C         61.25798      -17.12188       37.95813
C         61.76858      -17.71616       39.25701
C         63.28567      -17.71287       39.26419
C         63.79692      -18.30551       40.56390
C         65.31420      -18.30358       40.57094
C         65.82625      -18.89766       41.87035
C         67.34468      -18.89768       41.87867
C         67.85696      -19.49095       43.17903
C         69.37644      -19.49367       43.18987
C         69.89068      -20.08724       44.49156
C         71.41163      -20.09238       44.50388
C         71.93278      -20.68593       45.80571
C         73.45634      -20.69220       45.81514
C         73.99111      -21.28444       47.11392
C         75.50910      -21.28980       47.12110
H          0.53064        0.47802       -0.86721
H          0.51586        0.65804        0.89690
H          0.50451       -0.96038        0.16963
H          2.79437        1.06441       -0.05338
H          2.78323       -0.54584       -0.77735
H          2.57927       -1.56943        1.50197
H          2.58903        0.04007        2.22622
H          4.86088        0.46169        1.25831
H          4.85099       -1.14915        0.53509
H          4.62092       -2.16939        2.81123
H          4.63077       -0.55874        3.53425
H          6.90349       -0.13978        2.57202
H          6.89396       -1.75000        1.84737
H          6.65561       -2.77177        4.12094
H          6.66485       -1.16157        4.84545
H          8.93633       -0.74059        3.88007
H          8.92725       -2.35151        3.15654
H          8.68630       -3.37058        5.43113
H          8.69664       -1.75918        6.15324
H         10.96591       -1.33955        5.18452
H         10.95675       -2.95090        4.46192
H         10.71806       -3.96859        6.73674
H         10.72512       -2.35680        7.45843
H         12.99392       -1.93236        6.49159
H         12.98761       -3.54336        5.76823
H         12.74687       -4.56288        8.04168
H         12.75348       -2.95175        8.76485
H         15.02205       -2.52615        7.79667
H         15.01547       -4.13726        7.07322
H         14.77495       -5.15755        9.34525
H         14.78013       -3.54681       10.06987
H         17.04878       -3.11904        9.10331
H         17.04344       -4.72919        8.37769
H         16.80236       -5.75217       10.64891
H         16.80702       -4.14233       11.37479
H         19.07522       -3.71232       10.40821
H         19.07031       -5.32218        9.68231
H         18.82939       -6.34764       11.95188
H         18.83252       -4.73798       12.67912
H         21.10060       -4.30528       11.71250
H         21.09798       -5.91530       10.98658
H         20.85658       -6.93928       13.25691
H         20.85907       -5.32972       13.98362
H         23.12738       -4.89725       13.01767
H         23.12526       -6.50699       12.29141
H         22.88373       -7.53124       14.56246
H         22.88618       -5.92138       15.28875
H         25.15470       -5.48920       14.32317
H         25.15202       -7.09871       13.59659
H         24.90941       -8.12289       15.86797
H         24.91429       -6.51299       16.59382
H         27.18262       -6.08404       15.62717
H         27.17788       -7.69383       14.90090
H         26.93651       -8.71777       17.17243
H         26.94057       -7.10782       17.89809
H         29.20857       -6.67767       16.93061
H         29.20488       -8.28839       16.20624
H         28.96268       -9.30854       18.47934
H         28.96698       -7.69760       19.20288
H         31.23736       -7.26778       18.23204
H         31.23084       -8.88048       17.51112
H         30.99058       -9.90080       19.78353
H         30.99309       -8.29017       20.50782
H         33.26108       -7.85889       19.54130
H         33.25893       -9.46969       18.81739
H         33.01760      -10.49059       21.08970
H         33.01912       -8.87975       21.81372
H         35.28759       -8.44804       20.84753
H         35.28600      -10.05938       20.12462
H         35.04372      -11.07878       22.39782
H         35.04547       -9.46734       23.12052
H         37.31390       -9.03654       22.15492
H         37.31227      -10.64785       21.43196
H         37.07090      -11.66774       23.70454
H         37.07147      -10.05666       24.42803
H         39.33960       -9.62357       23.46372
H         39.33914      -11.23374       22.73819
H         39.09733      -12.25676       25.01004
H         39.09948      -10.64635       25.73500
H         41.36739      -10.21423       24.76802
H         41.36520      -11.82479       24.04334
H         41.12659      -12.84809       26.31333
H         41.12449      -11.23841       27.04037
H         43.39260      -10.80038       26.07827
H         43.39463      -12.40904       25.34927
H         43.15347      -13.43778       27.61800
H         43.15101      -11.82935       28.34726
H         45.41891      -11.38914       27.38671
H         45.42202      -12.99639       26.65478
H         45.18098      -14.02965       28.92136
H         45.17598      -12.42248       29.65379
H         47.44409      -11.97775       28.69435
H         47.44955      -13.58449       27.96142
H         47.20809      -14.61928       30.22709
H         47.20143      -13.01321       30.96052
H         49.46958      -12.56559       30.00255
H         49.47622      -14.17109       29.26707
H         49.23666      -15.21036       31.53034
H         49.22738      -13.60535       32.26725
H         51.49510      -13.15249       31.31132
H         51.50476      -14.75674       30.57267
H         51.26347      -15.79969       32.83508
H         51.25374      -14.19549       33.57373
H         53.52185      -13.74173       32.61758
H         53.53186      -15.34599       31.87945
H         53.29069      -16.38883       34.14153
H         53.27952      -14.78468       34.88021
H         55.54778      -14.32916       33.92500
H         55.55897      -15.93350       33.18676
H         55.31660      -16.97586       35.44983
H         55.30668      -15.37121       36.18740
H         57.57508      -14.91801       35.23041
H         57.58473      -16.52335       34.49432
H         57.34301      -17.56279       36.75837
H         57.33374      -15.95743       37.49441
H         59.60202      -15.50555       36.53852
H         59.61127      -17.11025       35.80109
H         59.36911      -18.15134       38.06471
H         59.36150      -16.54639       38.80164
H         61.62987      -16.09613       37.84434
H         61.63737      -17.70094       37.10715
H         61.39624      -18.74175       39.37077
H         61.38913      -17.13686       40.10779
H         63.65771      -16.68736       39.14876
H         63.66446      -18.29318       38.41379
H         63.42347      -19.33052       40.67932
H         63.41804      -17.72450       41.41379
H         65.68684      -17.27825       40.45600
H         65.69227      -18.88353       39.72001
H         65.45185      -19.92241       41.98489
H         65.44762      -18.31700       42.72055
H         67.71769      -17.87265       41.76217
H         67.72152      -19.47872       41.02789
H         67.48087      -20.51495       43.29451
H         67.47845      -18.90871       44.02824
H         69.75042      -18.46911       43.07261
H         69.75263      -20.07535       42.33926
H         69.51290      -21.11052       44.60721
H         69.51230      -19.50394       45.34001
H         71.78561      -19.06800       44.38522
H         71.78598      -20.67430       43.65267
H         71.55459      -21.70887       45.92283
H         71.55660      -20.10187       46.65458
H         73.82856      -19.66757       45.69320
H         73.82640      -21.27383       44.96181
H         73.62217      -22.30943       47.23598
H         73.62441      -20.70266       47.96765
H         75.90035      -21.88751       46.29153
H         75.88219      -21.71621       48.05657
H         75.90265      -20.27266       47.02666
