239

C          0.91274       -0.01082       -0.05316
C          2.42643       -0.01421       -0.05018
C          2.95656       -1.09813        0.88075
C          4.47559       -1.10242        0.88702
C          4.98671       -2.18755        1.82151
C          6.50414       -2.19152        1.82765
C          7.01477       -3.27341        2.76181
C          8.53164       -3.27613        2.76682
C          9.04207       -4.35841        3.69894
C         10.55875       -4.36076        3.70372
C         11.06887       -5.44297        4.63579
C         12.58552       -5.44402        4.64198
C         13.09554       -6.52632        5.57398
C         14.61224       -6.52741        5.58014
C         15.12218       -7.61100        6.51063
C         16.63885       -7.61341        6.51537
C         17.14885       -8.69682        7.44589
C         18.66542       -8.69935        7.45038
C         19.17552       -9.78289        8.38086
C         20.69219       -9.78381        8.38700
C         21.20219      -10.86876        9.31610
C         22.71871      -10.86979        9.32228
C         23.22871      -11.95352       10.25284
C         24.74537      -11.95446       10.25894
C         25.25529      -13.03947       11.18797
C         26.77208      -13.03910       11.19559
C         27.28208      -14.12396       12.12452
C         28.79870      -14.12491       12.13079
C         29.30870      -15.20977       13.05985
C         30.82531      -15.21084       13.06591
C         31.33561      -16.29569       13.99505
C         32.85168      -16.29680       14.00106
C         33.36187      -17.38320       14.92861
C         34.87876      -17.38421       14.93490
C         35.38865      -18.47004       15.86201
C         36.90529      -18.47251       15.86683
C         37.41534      -19.55877       16.79426
C         38.93203      -19.56123       16.79908
C         39.44199      -20.64714       17.72614
C         40.95862      -20.65094       17.72949
C         41.46869      -21.73705       18.65698
C         42.98525      -21.74070       18.66011
C         43.49531      -22.82695       19.58751
C         45.01193      -22.83189       19.58926
C         45.52191      -23.91932       20.51494
C         47.03880      -23.92559       20.51486
C         47.54868      -25.01329       21.44078
C         49.06538      -25.01813       21.44213
C         49.57538      -26.10719       22.36660
C         51.09184      -26.11207       22.36816
C         51.60187      -27.19972       23.29413
C         53.11870      -27.20334       23.29735
C         53.62858      -28.28933       24.22461
C         55.14524      -28.29184       24.22933
C         55.65528      -29.37797       25.15681
C         57.17198      -29.38145       25.15989
C         57.68197      -30.46773       26.08751
C         59.19850      -30.47132       26.09063
C         59.70861      -31.55888       27.01656
C         61.22517      -31.56253       27.01970
C         61.73520      -32.65138       27.94406
C         63.25185      -32.65495       27.94721
C         63.76193      -33.74379       28.87149
C         65.27850      -33.74876       28.87308
C         65.78856      -34.83883       29.79593
C         67.30521      -34.84513       29.79584
C         67.81526      -35.93537       30.71867
C         69.33178      -35.94163       30.71877
C         69.84191      -37.03307       31.64007
C         71.35854      -37.03814       31.64158
C         71.86869      -38.12953       32.56293
C         73.38548      -38.13603       32.56330
C         73.89610      -39.22627       33.48604
C         75.41396      -39.23261       33.48628
C         75.92635      -40.32411       34.40757
C         77.44686      -40.33020       34.40745
C         77.96009      -41.42402       35.32814
C         79.48390      -41.44467       35.34023
C         79.99268      -42.53537       36.25826
H          0.53615        0.76734       -0.72135
H          0.52377        0.17953        0.95273
H          0.52377       -0.97637       -0.39321
H          2.79891        0.96609        0.27264
H          2.79908       -0.18514       -1.06792
H          2.58490       -2.07845        0.55856
H          2.58256       -0.92933        1.89789
H          4.85226       -0.12499        1.21232
H          4.85450       -1.27742       -0.12721
H          4.61276       -3.16620        1.49876
H          4.61039       -2.01508        2.83658
H          6.87985       -1.21300        2.15052
H          6.88208       -2.36684        0.81298
H          6.64057       -4.25313        2.44003
H          6.63836       -3.09937        3.77742
H          8.90652       -2.29713        3.09022
H          8.90895       -3.44921        1.75134
H          8.66771       -5.33754        3.37562
H          8.66530       -4.18548        4.71458
H         10.93322       -3.38167        4.02705
H         10.93569       -4.53373        2.68817
H         10.69559       -6.42208        4.31159
H         10.69089       -5.27088        5.65114
H         12.95901       -4.46471        4.96599
H         12.96341       -5.61617        3.62685
H         12.72214       -7.50523        5.25000
H         12.71759       -6.35445        6.58947
H         14.98554       -5.54886        5.90544
H         14.99017       -6.69831        4.56441
H         14.74788       -8.58945        6.18601
H         14.74513       -7.43951        7.52654
H         17.01336       -6.63467        6.84016
H         17.01555       -7.78480        5.49969
H         16.77405       -9.67580        7.12144
H         16.77195       -8.52556        8.46157
H         19.03987       -7.72056        7.77534
H         19.04226       -8.87068        6.43486
H         18.80200      -10.76159        8.05524
H         18.79765       -9.61232        9.39648
H         21.06529       -8.80587        8.71383
H         21.07021       -9.95340        7.37110
H         20.82894      -11.84701        8.98932
H         20.82402      -10.69934       10.33193
H         23.09218       -9.89099        9.64805
H         23.09665      -11.04030        8.30683
H         22.85539      -12.93233        9.92688
H         22.85090      -11.78291       11.26798
H         25.11855      -10.97605       10.58580
H         25.12359      -12.12377        9.24324
H         24.88330      -14.01747       10.86026
H         24.87632      -12.87074       12.20366
H         27.14427      -12.06083       11.52328
H         27.15111      -13.20758       10.17991
H         26.90884      -15.10241       11.79761
H         26.90397      -13.95475       13.14015
H         29.17197      -13.14650       12.45784
H         29.17667      -14.29417       11.11529
H         28.93550      -16.18796       12.73281
H         28.93063      -15.04064       14.07566
H         31.19873      -14.23247       13.39306
H         31.20322      -15.38004       12.05040
H         30.96156      -17.27421       13.66818
H         30.95742      -16.12665       15.01058
H         33.22524      -15.31895       14.32929
H         33.23017      -16.46470       12.98507
H         32.98884      -18.36052       14.60031
H         32.98399      -17.21504       15.94475
H         35.25209      -16.40624       15.26297
H         35.25654      -17.55182       13.91861
H         35.01427      -19.44808       15.53477
H         35.01170      -18.30175       16.87843
H         37.27978      -17.49474       16.19439
H         37.28209      -18.64117       14.85074
H         37.04089      -20.53619       16.46678
H         37.03854      -19.39010       17.81072
H         39.30652      -18.58358       17.12630
H         39.30881      -19.72941       15.78231
H         39.06640      -21.62505       17.39981
H         39.06625      -20.47795       18.74281
H         41.33427      -19.67329       18.05618
H         41.33428      -20.82038       16.71306
H         41.09308      -22.71445       18.33027
H         41.09295      -21.56768       19.67369
H         43.36107      -20.76317       18.98670
H         43.36077      -21.91022       17.64355
H         43.11857      -23.80408       19.26160
H         43.12059      -22.65706       20.60451
H         45.38914      -21.85481       19.91577
H         45.38648      -23.00029       18.57227
H         45.14417      -24.89616       20.18850
H         45.14847      -23.75005       21.53242
H         47.41666      -22.94873       20.84149
H         47.41184      -24.09523       19.49788
H         47.17160      -25.99006       21.11351
H         47.17435      -24.84463       22.45804
H         49.44196      -24.04224       21.77070
H         49.43987      -25.18582       20.42459
H         49.19845      -27.08366       22.03824
H         49.20078      -25.93963       23.38394
H         51.46865      -25.13541       22.69551
H         51.46653      -26.28075       21.35099
H         51.22621      -28.17681       22.96610
H         51.22644      -27.03156       24.31072
H         53.49409      -26.22592       23.62396
H         53.49443      -27.37245       22.28054
H         53.25388      -29.26720       23.89743
H         53.25194      -28.12078       25.24105
H         55.51969      -27.31439       24.55678
H         55.52204      -28.46050       23.21284
H         55.27975      -30.35559       24.83015
H         55.27945      -29.20857       26.17331
H         57.54754      -28.40386       25.48682
H         57.54748      -29.55093       24.14373
H         57.30627      -31.44515       25.76068
H         57.30618      -30.29852       27.10416
H         59.57421      -29.49421       26.41862
H         59.57415      -30.63944       25.07397
H         59.33299      -32.53571       26.68843
H         59.33290      -31.39095       28.03349
H         61.60089      -30.58590       27.34892
H         61.60088      -31.72923       26.00264
H         61.35972      -33.62769       27.61464
H         61.35946      -32.48476       28.96136
H         63.62766      -31.67831       28.27656
H         63.62735      -32.82155       26.93014
H         63.38517      -34.72006       28.54279
H         63.38733      -33.57658       29.88891
H         65.65544      -32.77275       29.20290
H         65.65293      -33.91482       27.85558
H         65.41074      -35.81455       29.46676
H         65.41511      -34.67218       30.81390
H         67.68329      -33.86924       30.12514
H         67.67837      -35.01183       28.77817
H         67.43714      -36.91118       30.38932
H         67.44193      -35.76882       31.73641
H         69.70970      -34.96620       31.04915
H         69.70531      -36.10696       29.70067
H         69.46504      -38.00825       31.30877
H         69.46745      -36.86844       32.65809
H         71.73547      -36.06269       31.97282
H         71.73292      -37.20264       30.62361
H         71.49069      -39.10488       32.23241
H         71.49513      -37.96411       33.58100
H         73.76326      -37.16000       32.89223
H         73.75854      -38.30240       31.54509
H         73.51760      -40.20183       33.15672
H         73.52236      -39.05948       34.50386
H         75.79037      -38.25677       33.81631
H         75.78576      -39.39754       32.46762
H         75.54810      -41.29857       34.07724
H         75.55277      -40.15897       35.42488
H         77.82181      -39.35417       34.73880
H         77.81719      -40.49346       33.38807
H         77.57838      -42.39703       34.99575
H         77.58302      -41.25938       36.34483
H         79.86495      -40.47129       35.67382
H         79.86025      -41.61046       34.32299
H         79.64294      -42.37344       37.28331
H         81.08522      -42.54731       36.26455
H         79.63826      -43.51718       35.92703
