254

C          1.06373       -0.01996        0.04847
C          2.58238       -0.01306        0.04973
C          3.10988        0.96023        1.09544
C          4.63116        0.96969        1.09670
C          5.14270        1.94512        2.14205
C          6.66169        1.95646        2.14525
C          7.17249        2.93055        3.19157
C          8.68969        2.93885        3.19161
C          9.20040        3.91346        4.23592
C         10.71693        3.92110        4.23544
C         11.22725        4.89580        5.27959
C         12.74407        4.90219        5.28027
C         13.25391        5.87686        6.32447
C         14.77059        5.88299        6.32503
C         15.28066        6.85767        7.36932
C         16.79736        6.86235        7.37131
C         17.30730        7.83695        8.41551
C         18.82397        7.84016        8.41899
C         19.33399        8.81477        9.46317
C         20.85059        8.81653        9.46796
C         21.36043        9.79108       10.51193
C         22.87720        9.79108       10.51865
C         23.38773       10.76676       11.56236
C         24.90400       10.76443       11.57049
C         25.41382       11.73919       12.61432
C         26.93048       11.73940       12.62075
C         27.44054       12.71252       13.66621
C         28.95719       12.71293       13.67251
C         29.46736       13.68611       14.71818
C         30.98408       13.68784       14.72285
C         31.49386       14.66073       15.76860
C         33.01047       14.66243       15.77301
C         33.52053       15.63588       16.81897
C         35.03752       15.63749       16.82377
C         35.54704       16.61231       17.86810
C         37.06387       16.61368       17.87263
C         37.57370       17.58857       18.91697
C         39.09091       17.59145       18.91994
C         39.60062       18.56629       19.96457
C         41.11777       18.56897       19.96804
C         41.62701       19.54425       21.01229
C         43.14384       19.54721       21.01562
C         43.65387       20.52056       22.06112
C         45.17061       20.52522       22.06312
C         45.68049       21.49832       23.10874
C         47.19717       21.50438       23.10965
C         47.70736       22.47630       24.15657
C         49.22401       22.48064       24.15821
C         49.73369       23.45102       25.20683
C         51.25044       23.45572       25.20884
C         51.76033       24.42455       26.25870
C         53.27729       24.43054       26.25917
C         53.78724       25.39926       27.30919
C         55.30372       25.40692       27.30806
C         55.81356       26.37382       28.35927
C         57.33069       26.38014       28.36050
C         57.83956       27.35019       29.41241
C         59.35697       27.35400       29.41065
C         59.86691       28.32525       30.45837
C         61.38373       28.33280       30.45831
C         61.89392       29.30306       31.50648
C         63.41049       29.31078       31.50572
C         63.92056       30.28241       32.55279
C         65.43714       30.28997       32.55215
C         65.94726       31.26032       33.60031
C         67.46384       31.26781       33.59970
C         67.97355       32.23970       34.64640
C         69.49043       32.24721       34.64604
C         70.00075       33.21761       35.69463
C         71.51755       33.22501       35.69353
C         72.02681       34.19350       36.74310
C         73.54375       34.20095       36.74249
C         74.05315       35.17165       37.79223
C         75.57077       35.18063       37.78918
C         76.08078       36.15220       38.83632
C         77.59745       36.16158       38.83413
C         78.10801       37.13186       39.88242
C         79.62525       37.14315       39.87980
C         80.13604       38.11412       40.92902
C         81.65500       38.12991       40.92820
C         82.16654       39.10106       41.97747
C         83.68777       39.11645       41.97333
C         84.21527       40.08693       43.02161
C         85.73386       40.10114       43.01616
H          0.69141       -0.71724       -0.70067
H          0.67183        0.97631       -0.18224
H          0.67665       -0.32475        1.02651
H          2.94765        0.26955       -0.94443
H          2.95262       -1.02402        0.25725
H          2.74182        0.67520        2.08781
H          2.73485        1.96896        0.88693
H          5.00525        1.25640        0.10765
H          5.01215       -0.03527        1.30952
H          4.77211        1.66121        3.13507
H          4.76518        2.95385        1.93215
H          7.03537        2.24415        1.15500
H          7.04258        0.94988        2.35646
H          6.80078        2.64417        4.18314
H          6.79360        3.93841        2.98171
H          9.06252        3.22443        2.20017
H          9.06947        1.93161        3.40321
H          8.82812        3.62817        5.22766
H          8.82118        4.92097        4.02454
H         11.08952        4.20667        3.24387
H         11.09642        2.91386        4.44704
H         10.85403        4.61121        6.27114
H         10.84906        5.90343        5.06727
H         13.11733        5.18677        4.28876
H         13.12212        3.89463        5.49266
H         12.88056        5.59216        7.31580
H         12.87587        6.88444        6.11204
H         15.14419        6.16749        5.33373
H         15.14864        4.87530        6.53767
H         14.90615        6.57376        8.36058
H         14.90360        7.86547        7.15615
H         17.17200        7.14599        6.38016
H         17.17417        5.85439        7.58468
H         16.93164        7.55389        9.40660
H         16.93145        8.84505        8.20161
H         19.19985        8.12298        7.42800
H         19.19965        6.83196        8.63314
H         18.95712        8.53254       10.45403
H         18.95929        9.82314        9.24843
H         21.22769        9.09848        8.47723
H         21.22513        7.80802        9.68298
H         20.98263        9.50972       11.50281
H         20.98715       10.79973       10.29662
H         23.25561       10.07245        9.52748
H         23.25061        8.78244       10.73398
H         23.00757       10.48562       12.55362
H         23.01488       11.77466       11.34597
H         25.28331       11.04507       10.57953
H         25.27615        9.75583       11.78672
H         25.03562       11.45782       13.60512
H         25.04069       12.74797       12.39895
H         27.30873       12.02197       11.63061
H         27.30406       10.73033       12.83516
H         27.06254       12.42992       14.65662
H         27.06713       13.72155       13.45201
H         29.33532       12.99561       12.68214
H         29.33084       11.70382       13.88668
H         29.09012       13.40245       15.70845
H         29.09271       14.69480       14.50458
H         31.36082       13.97121       13.73259
H         31.35848       12.67881       14.93635
H         31.11701       14.37734       16.75888
H         31.11939       15.66945       15.55504
H         33.38749       14.94591       14.78306
H         33.38523       13.65380       15.98685
H         33.14361       15.35235       17.80929
H         33.14585       16.64445       16.60536
H         35.41421       15.91976       15.83295
H         35.41175       14.62913       17.03845
H         35.17029       16.32989       18.85878
H         35.17267       17.62022       17.65326
H         37.44070       16.89599       16.88182
H         37.43854       15.60551       18.08754
H         37.19817       17.30554       19.90781
H         37.19833       18.59662       18.70278
H         39.46639       17.87431       17.92958
H         39.46633       16.58338       19.13440
H         39.22482       18.28319       20.95550
H         39.22484       19.57426       19.75049
H         41.49306       18.85240       18.97689
H         41.49294       17.56152       20.18189
H         41.25139       19.26097       22.00320
H         41.25146       20.55198       20.79834
H         43.51949       19.83157       20.02492
H         43.51976       18.53892       21.22836
H         43.27920       20.23544       23.05205
H         43.27691       21.52876       21.84928
H         45.54508       20.81045       21.07238
H         45.54749       19.51714       22.27501
H         45.30694       21.21232       24.09983
H         45.30263       22.50638       22.89789
H         47.57078       21.79150       22.11898
H         47.57519       20.49608       23.31931
H         47.33272       22.18946       25.14689
H         47.33015       23.48452       23.94616
H         49.59839       22.76877       23.16851
H         49.60080       21.47233       24.36737
H         49.35930       23.16284       26.19681
H         49.35689       24.45978       24.99800
H         51.62502       23.74496       24.21929
H         51.62778       22.44653       25.41629
H         51.38712       24.13423       27.24825
H         51.38239       25.43324       26.05184
H         53.65048       24.72077       25.26932
H         53.65527       23.42180       26.46588
H         53.41477       25.10814       28.29871
H         53.40804       26.40787       27.10304
H         55.67608       25.69902       26.31897
H         55.68313       24.39774       27.51294
H         55.44061       26.08247       29.34883
H         55.43551       27.38318       28.15403
H         57.70397       26.67045       27.37000
H         57.70834       25.37204       28.56590
H         57.46644       27.06057       30.39884
H         57.46242       28.35783       29.20225
H         59.73116       27.64350       28.41954
H         59.73516       26.34667       29.61876
H         59.49472       28.03573       31.44961
H         59.48821       29.33359       30.25147
H         61.75623       28.62240       29.46769
H         61.76329       27.32451       30.66557
H         61.52172       29.01356       32.49694
H         61.51448       30.31131       31.29903
H         63.78282       29.59921       30.51490
H         63.78980       28.30277       31.71429
H         63.54818       29.99391       33.54358
H         63.54126       31.29029       32.34421
H         65.80931       30.57949       31.56165
H         65.81655       29.28178       32.75956
H         65.57497       30.97079       34.59085
H         65.56776       32.26850       33.39291
H         67.83617       31.55635       32.60882
H         67.84302       30.26010       33.80829
H         67.60152       31.95116       35.63765
H         67.59462       33.24744       34.43814
H         69.86271       32.53681       33.65544
H         69.86994       31.23869       34.85306
H         69.62825       32.92771       36.68453
H         69.62122       34.22569       35.48700
H         71.88932       33.51579       34.70384
H         71.89643       32.21654       35.89966
H         71.65516       33.90292       37.73326
H         71.64801       35.20217       36.53736
H         73.91617       34.49113       35.75225
H         73.92327       33.19324       36.94994
H         73.68275       34.88151       38.78130
H         73.67357       36.17940       37.58445
H         75.94167       35.46992       36.79798
H         75.95093       34.17297       37.99672
H         75.70943       35.86306       39.82703
H         75.70008       37.15992       38.62823
H         77.96819       36.45193       37.84329
H         77.97794       35.15360       39.04045
H         77.73760       36.84055       40.87312
H         77.72595       38.13945       39.67668
H         79.99460       37.43414       38.88869
H         80.00648       36.13522       40.08502
H         79.76577       37.82110       41.91895
H         79.75179       39.12058       40.72317
H         82.02191       38.42054       39.93569
H         82.03618       37.12118       41.13128
H         81.79716       38.80691       42.96615
H         81.78091       40.10576       41.77213
H         84.05108       39.40773       40.98097
H         84.06753       38.10823       42.17555
H         83.85577       39.79728       44.01607
H         83.83929       41.09700       42.82114
H         86.13162       39.10562       43.23983
H         86.10618       40.79634       43.76724
H         86.11504       40.41298       42.03799
