257

C          0.96017       -0.05701       -0.23599
C          2.47744       -0.05879       -0.22886
C          3.00755       -1.07275        0.77717
C          4.52955       -1.07881        0.78618
C          5.04516       -2.09618        1.79302
C          6.56429       -2.10214        1.80159
C          7.07598       -3.11994        2.80586
C          8.59396       -3.12371        2.81243
C          9.10524       -4.14217        3.81447
C         10.62236       -4.14472        3.81944
C         11.13307       -5.16309        4.82125
C         12.64986       -5.16655        4.82475
C         13.16011       -6.18467        5.82658
C         14.67681       -6.18811        5.82995
C         15.18692       -7.20508        6.83288
C         16.70357       -7.20852        6.83620
C         17.21359       -8.22652        7.83810
C         18.73023       -8.22991        7.84149
C         19.24027       -9.24812        8.84315
C         20.75692       -9.25150        8.84652
C         21.26696      -10.27104        9.84683
C         22.78360      -10.27439        9.85015
C         23.29377      -11.29532       10.84897
C         24.81043      -11.29867       10.85200
C         25.32046      -12.32088       11.84945
C         26.83715      -12.32603       11.85130
C         27.34689      -13.34980       12.84746
C         28.86353      -13.35350       12.85052
C         29.37360      -14.37732       13.84649
C         30.89030      -14.38210       13.84848
C         31.40017      -15.40582       14.84462
C         32.91673      -15.41078       14.84650
C         33.42641      -16.43504       15.84201
C         34.94338      -16.44031       15.84311
C         35.45487      -17.46344       16.83957
C         36.96978      -17.46843       16.84172
C         37.48151      -18.49276       17.83793
C         38.99644      -18.49482       17.84009
C         39.50660      -19.52023       18.83415
C         41.02282      -19.52423       18.83876
C         41.53263      -20.55145       19.83062
C         43.04986      -20.55520       19.83364
C         43.56012      -21.58329       20.82535
C         45.07674      -21.58666       20.82862
C         45.58679      -22.61467       21.82023
C         47.10345      -22.61800       21.82369
C         47.61350      -23.64480       22.81654
C         49.13014      -23.64688       22.82126
C         49.64016      -24.67469       23.81309
C         51.15678      -24.67673       23.81789
C         51.66673      -25.70348       24.81083
C         53.18337      -25.70564       24.81550
C         53.69349      -26.73218       25.80856
C         55.21013      -26.73532       25.81198
C         55.72021      -27.76048       26.80648
C         57.23683      -27.76274       26.81103
C         57.74678      -28.78664       27.80691
C         59.26332      -28.78979       27.81046
C         59.77331      -29.81373       28.80680
C         61.29001      -29.81341       28.81212
C         61.80040      -30.84009       29.80668
C         63.31677      -30.84147       29.81183
C         63.82687      -31.86528       30.80789
C         65.34346      -31.86729       30.81270
C         65.85355      -32.89244       31.80708
C         67.37018      -32.89448       31.81182
C         67.88009      -33.92115       32.80485
C         69.39665      -33.92337       32.81003
C         69.90683      -34.94841       33.80475
C         71.42333      -34.94911       33.81052
C         71.93339      -35.97311       34.80631
C         73.45001      -35.97363       34.81261
C         73.96038      -36.99878       35.80710
C         75.47716      -36.99909       35.81358
C         75.98770      -38.02558       36.80687
C         77.50464      -38.02562       36.81478
C         78.01535      -39.05280       37.80770
C         79.53246      -39.05391       37.81460
C         80.04505      -40.08281       38.80725
C         81.56352      -40.08373       38.81369
C         82.08018      -41.11063       39.80701
C         83.60154      -41.11440       39.81632
C         84.11901      -42.14178       40.81285
C         85.64204      -42.15591       40.83229
C         86.15399      -43.18119       41.82690
H          0.58564        0.67199       -0.95927
H          0.56777        0.20470        0.75183
H          0.57224       -1.04362       -0.50876
H          2.84428        0.94285        0.02286
H          2.84859       -0.29955       -1.23166
H          2.63757       -2.07449        0.52671
H          2.63508       -0.83193        1.78035
H          4.90640       -0.08114        1.04215
H          4.90886       -1.32266       -0.21357
H          4.67177       -3.09571        1.53897
H          4.66955       -1.85475        2.79452
H          6.94086       -1.10450        2.05863
H          6.94315       -2.34444        0.80114
H          6.70211       -4.11897        2.55022
H          6.69968       -2.87944        3.80803
H          8.96941       -2.12571        3.07015
H          8.97159       -3.36382        1.81084
H          8.73100       -5.14070        3.55710
H          8.72878       -3.90277        4.81658
H         10.99752       -3.14660        4.07708
H         10.99950       -4.38457        2.81762
H         10.75755       -6.16131        4.56455
H         10.75737       -4.92276        5.82349
H         13.02575       -4.16844        5.08147
H         13.02583       -5.40713        3.82265
H         12.78442       -7.18288        5.57002
H         12.78437       -5.94412        6.82877
H         15.05269       -5.18971        6.08551
H         15.05258       -6.42978        4.82804
H         14.81102       -8.20351        6.57743
H         14.81125       -6.96335        7.83481
H         17.07935       -6.21033        7.09277
H         17.07939       -7.44913        5.83407
H         16.83781       -9.22469        7.58148
H         16.83776       -7.98593        8.84024
H         19.10604       -7.23178        8.09823
H         19.10600       -8.47036        6.83930
H         18.86447      -10.24622        8.58627
H         18.86450       -9.00780        9.84538
H         21.13270       -8.25369        9.10454
H         21.13271       -9.49066        7.84402
H         20.89118      -11.26880        9.58858
H         20.89115      -10.03211       10.84936
H         23.15940       -9.27698       10.10961
H         23.15938      -10.51214        8.84731
H         22.91791      -12.29274       10.58939
H         22.91813      -11.05779       11.85192
H         25.18633      -10.30161       11.11272
H         25.18594      -11.53525        9.84875
H         24.94355      -13.31783       11.58907
H         24.94577      -12.08404       12.85295
H         27.21410      -11.32949       12.11275
H         27.21180      -12.56193       10.84765
H         26.97086      -14.34641       12.58516
H         26.97123      -13.11487       13.85096
H         29.23953      -12.35690       13.11277
H         29.23908      -13.58841       11.84694
H         28.99673      -15.37377       13.58491
H         28.99889      -14.14171       14.85020
H         31.26725      -13.38561       14.10988
H         31.26492      -14.61783       12.84475
H         31.02321      -16.40220       14.58298
H         31.02545      -15.17019       15.84823
H         33.29401      -14.41454       15.10827
H         33.29135      -15.64636       13.84270
H         33.04892      -17.43106       15.58105
H         33.05286      -16.19920       16.84602
H         35.32089      -15.44418       16.10473
H         35.31795      -16.67618       14.83953
H         35.07819      -18.46055       16.57680
H         35.07755      -17.22926       17.84304
H         37.34606      -16.46856       17.10652
H         37.34550      -17.69980       15.83959
H         37.10436      -19.48795       17.57356
H         37.10382      -18.25880       18.84076
H         39.37159      -17.49886       18.10512
H         39.37289      -18.72674       16.83659
H         39.13075      -20.51701       18.56954
H         39.12993      -19.28764       19.83862
H         41.39859      -18.52857       19.10347
H         41.39785      -19.75615       17.83389
H         41.15716      -21.54732       19.56488
H         41.15752      -20.32018       20.83512
H         43.42580      -19.55969       20.10006
H         43.42558      -20.78592       18.82915
H         43.18432      -22.57879       20.55868
H         43.18430      -21.35268       21.82973
H         45.45249      -20.59112       21.09530
H         45.45262      -21.81714       19.82413
H         45.21114      -23.61029       21.55368
H         45.21091      -22.38412       22.82472
H         47.47917      -21.62211       22.08914
H         47.47935      -22.84971       20.81948
H         47.23873      -24.64085       22.55039
H         47.23669      -23.41381       23.82058
H         49.50472      -22.65105       23.08852
H         49.50715      -23.87678       21.81706
H         49.26559      -25.67051       23.54586
H         49.26312      -24.44476       24.81729
H         51.53146      -23.68064       24.08406
H         51.53373      -24.90772       22.81391
H         51.29198      -26.69957       24.54475
H         51.28983      -25.47239       25.81481
H         53.55808      -24.70952       25.08147
H         53.56023      -25.93681       23.81153
H         53.31795      -27.72821       25.54343
H         53.31753      -26.50020       26.81268
H         55.58573      -25.73897       26.07585
H         55.58607      -26.96855       24.80814
H         55.34544      -28.75699       26.54202
H         55.34341      -27.52779       27.81012
H         57.61170      -26.76594       27.07430
H         57.61356      -27.99666       25.80766
H         57.37113      -29.78333       27.54446
H         57.37085      -28.55192       28.81039
H         59.63899      -27.79313       28.07286
H         59.63942      -29.02458       26.80698
H         59.39908      -30.81045       28.54321
H         59.39656      -29.57960       29.80980
H         61.66427      -28.81834       29.07438
H         61.66724      -30.04948       27.80793
H         61.42596      -31.83589       29.54351
H         61.42305      -30.60589       30.81084
H         63.69133      -29.84428       30.07543
H         63.69365      -31.07528       28.80891
H         63.45237      -32.86208       30.54459
H         63.44996      -31.63138       31.81132
H         65.71795      -30.87063       31.07720
H         65.72047      -32.09986       29.80903
H         65.47899      -33.88894       31.54235
H         65.47659      -32.66005       32.81070
H         67.74475      -31.89828       32.07784
H         67.74725      -33.12559       30.80790
H         67.50549      -34.91729       32.53891
H         67.50305      -33.68993       33.80872
H         69.77131      -32.92664       33.07444
H         69.77383      -34.15564       31.80615
H         69.53318      -35.94518       33.53901
H         69.52901      -34.71705       34.80787
H         71.79682      -33.95208       34.07479
H         71.80139      -35.18202       32.80743
H         71.55984      -36.97018       34.54213
H         71.55519      -35.74016       35.80940
H         73.82329      -34.97682       35.07796
H         73.82814      -36.20533       33.80924
H         73.58712      -37.99554       35.54148
H         73.58205      -36.76725       36.81042
H         75.85024      -36.00252       36.08023
H         75.85540      -37.22946       34.80991
H         75.61525      -39.02206       36.53911
H         75.60829      -37.79595       37.81023
H         77.87721      -37.02908       37.08262
H         77.88349      -38.25477       35.81113
H         77.64143      -40.04889       37.54038
H         77.63655      -38.82258       38.81120
H         79.90524      -38.05767       38.08246
H         79.91020      -39.28251       36.81049
H         79.67091      -41.07794       38.53840
H         79.66617      -39.85289       39.81041
H         81.93528      -39.08652       39.07973
H         81.93984      -40.31307       37.80915
H         81.70540      -42.10636       39.53993
H         81.70069      -40.87995       40.81004
H         83.97226      -40.11664       40.08059
H         83.97692      -41.34474       38.81188
H         83.74042      -43.13595       40.54558
H         83.73565      -41.90824       41.81369
H         86.02088      -41.16312       41.10138
H         86.02566      -42.39132       39.83284
H         85.80160      -42.95100       42.83740
H         87.24694      -43.18693       41.83649
H         85.80632      -44.18502       41.56283
