263

C          1.01096        0.10116        0.06313
C          2.52759        0.09501        0.05964
C          3.05374       -0.54283       -1.21701
C          4.57524       -0.54928       -1.22542
C          5.08752       -1.18743       -2.50587
C          6.60646       -1.19266       -2.51297
C          7.11640       -1.82751       -3.79221
C          8.63410       -1.83211       -3.79697
C          9.14455       -2.46869       -5.07560
C         10.66105       -2.47253       -5.07919
C         11.17182       -3.10902       -6.35797
C         12.68809       -3.11172       -6.36193
C         13.19814       -3.74795       -7.64082
C         14.71525       -3.75128       -7.64411
C         15.22401       -4.38572       -8.92478
C         16.74241       -4.38816       -8.92718
C         17.25140       -5.02220      -10.20847
C         18.76845       -5.02624      -10.21154
C         19.27832       -5.66251      -11.49029
C         20.79496       -5.66465      -11.49449
C         21.30502       -6.30123      -12.77305
C         22.82168       -6.30339      -12.77741
C         23.33171       -6.94004      -14.05574
C         24.84833       -6.94239      -14.05996
C         25.35844       -7.58053      -15.33777
C         26.87496       -7.58444      -15.34122
C         27.38499       -8.22113      -16.61973
C         28.90161       -8.22343      -16.62391
C         29.41163       -8.86002      -17.90252
C         30.92824       -8.86387      -17.90594
C         31.43830       -9.50053      -19.18450
C         32.95492       -9.50467      -19.18795
C         33.46485      -10.14092      -20.46658
C         34.98162      -10.14296      -20.47076
C         35.49158      -10.77815      -21.75014
C         37.00812      -10.78196      -21.75341
C         37.51862      -11.41879      -23.03193
C         39.03468      -11.42404      -23.03475
C         39.54496      -12.06083      -24.31325
C         41.06153      -12.06494      -24.31652
C         41.57157      -12.70160      -25.59509
C         43.08820      -12.70540      -25.59851
C         43.59823      -13.34198      -26.87712
C         45.11484      -13.34418      -26.88121
C         45.62504      -13.98081      -28.16006
C         47.14233      -13.98279      -28.16454
C         47.65101      -14.61989      -29.44270
C         49.16876      -14.62322      -29.44583
C         49.67760      -15.25799      -30.72619
C         51.19525      -15.26038      -30.73027
C         51.70510      -15.89524      -32.00940
C         53.22155      -15.89902      -32.01277
C         53.73156      -16.53392      -33.29222
C         55.24821      -16.53790      -33.29560
C         55.75825      -17.17281      -34.57505
C         57.27486      -17.17657      -34.57844
C         57.78488      -17.81145      -35.85782
C         59.30149      -17.81372      -35.86226
C         59.81149      -18.45001      -37.14099
C         61.32813      -18.45056      -37.14575
C         61.83822      -19.08721      -38.42450
C         63.35489      -19.08913      -38.42876
C         63.86489      -19.72571      -39.70740
C         65.38155      -19.72794      -39.71166
C         65.89170      -20.36467      -40.99018
C         67.40827      -20.36675      -40.99457
C         67.91830      -21.00519      -42.27216
C         69.43499      -21.00563      -42.27693
C         69.94432      -21.64531      -43.55455
C         71.46211      -21.64836      -43.55885
C         71.97174      -22.28625      -44.83588
C         73.48798      -22.28897      -44.84023
C         73.99908      -22.92614      -46.11770
C         75.51429      -22.92735      -46.12321
C         76.02486      -23.56548      -47.40082
C         77.54152      -23.56602      -47.40599
C         78.05157      -24.20278      -48.68461
C         79.56835      -24.20468      -48.68900
C         80.07858      -24.84142      -49.96759
C         81.59548      -24.84203      -49.97312
C         82.10754      -25.48059      -51.25140
C         83.62375      -25.48092      -51.25648
C         84.13830      -26.11772      -52.53569
C         85.65771      -26.11886      -52.54217
C         86.17504      -26.75494      -53.82416
C         87.69574      -26.76207      -53.84320
C         88.20678      -27.39671      -55.12235
H          0.63226        0.55935        0.98011
H          0.61764       -0.91957        0.00222
H          0.62231        0.66889       -0.78953
H          2.89379       -0.45757        0.93207
H          2.89827        1.12261        0.14442
H          2.68416        0.00815       -2.09074
H          2.68173       -1.57137       -1.30265
H          4.95173       -1.10420       -0.35686
H          4.95418        0.47720       -1.14336
H          4.71438       -0.63274       -3.37538
H          4.71218       -2.21333       -2.58926
H          6.98187       -1.74840       -1.64462
H          6.98442       -0.16600       -2.42876
H          6.74278       -1.27233       -4.66162
H          6.74029       -2.85463       -3.87727
H          9.00917       -2.38670       -2.92792
H          9.01142       -0.80534       -3.71423
H          8.77016       -1.91429       -5.94504
H          8.76792       -3.49567       -5.15864
H         11.03624       -3.02712       -4.21004
H         11.03841       -1.44578       -4.99649
H         10.79590       -2.55573       -7.22714
H         10.79549       -4.13663       -6.44008
H         13.06385       -3.66530       -5.49282
H         13.06398       -2.08429       -6.27986
H         12.82253       -3.19438       -8.50997
H         12.82253       -4.77547       -7.72293
H         15.09047       -4.30476       -6.77609
H         15.09084       -2.72306       -7.56088
H         14.85030       -3.82961       -9.79257
H         14.84809       -5.41166       -9.00832
H         17.11631       -4.94440       -8.05978
H         17.11768       -3.36223       -8.84293
H         16.87607       -4.46948      -11.07634
H         16.87576       -6.05072      -10.29143
H         19.14390       -5.57970       -9.34233
H         19.14406       -3.99866      -10.12929
H         18.90252       -5.10883      -12.35950
H         18.90262       -6.68984      -11.57236
H         21.17067       -6.21829      -10.62522
H         21.17075       -4.63724      -11.41232
H         20.92920       -5.74762      -13.64240
H         20.92930       -7.32858      -12.85513
H         23.19736       -6.85695      -11.90803
H         23.19744       -5.27595      -12.69522
H         22.95607       -6.38644      -14.92529
H         22.95579       -7.96737      -14.13787
H         25.22409       -7.49480      -13.18993
H         25.22417       -5.91494      -13.97922
H         24.98350       -7.02729      -16.20768
H         24.98147       -8.60771      -15.41945
H         27.24957       -8.13878      -14.47199
H         27.25175       -6.55747      -15.25852
H         27.00941       -7.66749      -17.48914
H         27.00907       -9.24845      -16.70182
H         29.27728       -8.77708      -15.75454
H         29.27751       -7.19612      -16.54182
H         29.03694       -8.30556      -18.77169
H         29.03480       -9.88694      -17.98532
H         31.30290       -9.41827      -17.03669
H         31.30516       -7.83697      -17.82323
H         31.06371       -8.94617      -20.05373
H         31.06136      -10.52752      -19.26727
H         33.32961      -10.05897      -18.31868
H         33.33172       -8.47750      -19.10478
H         33.08931       -9.58712      -21.33575
H         33.08914      -11.16814      -20.54879
H         35.35721      -10.69801      -19.60209
H         35.35756       -9.11605      -20.38734
H         35.11703      -10.22250      -22.61871
H         35.11467      -11.80488      -21.83431
H         37.38286      -11.33660      -20.88429
H         37.38517       -9.75521      -21.67065
H         37.14442      -10.86345      -23.90133
H         37.14025      -12.44500      -23.11570
H         39.40839      -11.97939      -22.16547
H         39.41284      -10.39769      -22.95120
H         39.17049      -11.50632      -25.18253
H         39.16785      -13.08766      -24.39601
H         41.43610      -12.61945      -23.44723
H         41.43857      -11.03813      -24.23376
H         41.19698      -12.14711      -26.46432
H         41.19469      -13.72851      -25.67794
H         43.46294      -13.25984      -24.72932
H         43.46502      -11.67845      -25.51574
H         43.22263      -12.78829      -27.74645
H         43.22237      -14.36928      -26.95927
H         45.49062      -13.89791      -26.01201
H         45.49067      -12.31692      -26.79917
H         45.24907      -13.42703      -29.02924
H         45.24911      -15.00809      -28.24212
H         47.51719      -14.53631      -27.29486
H         47.51724      -12.95546      -28.08202
H         47.27711      -14.06504      -30.31204
H         47.27395      -15.64825      -29.52744
H         49.54312      -15.17895      -28.57802
H         49.54538      -13.59667      -29.36207
H         49.30273      -14.70365      -31.59440
H         49.30248      -16.28549      -30.80921
H         51.57050      -15.81535      -29.86129
H         51.57072      -14.23341      -30.64632
H         51.33022      -15.33959      -32.87772
H         51.32813      -16.92207      -32.09361
H         53.59619      -16.45472      -31.14436
H         53.59844      -14.87224      -31.92855
H         53.35701      -15.97817      -34.16078
H         53.35459      -17.56061      -33.37649
H         55.62276      -17.09367      -32.42703
H         55.62517      -15.51123      -33.21133
H         55.38361      -16.61710      -35.44346
H         55.38137      -18.19959      -34.65927
H         57.64955      -17.73220      -33.71001
H         57.65175      -16.14977      -34.49423
H         57.40927      -17.25674      -36.72649
H         57.40904      -18.83875      -35.94133
H         59.67740      -18.36735      -34.99288
H         59.67720      -16.78608      -35.77979
H         59.43481      -17.89716      -38.01008
H         59.43675      -19.47771      -37.22254
H         61.70514      -19.00318      -36.27632
H         61.70303      -17.42263      -37.06444
H         61.46238      -18.53359      -39.29356
H         61.46259      -20.11455      -38.50649
H         63.73072      -19.64277      -37.55954
H         63.73059      -18.06175      -38.34669
H         63.48913      -19.17216      -40.57669
H         63.48916      -20.75314      -39.78944
H         65.75726      -20.28151      -38.84232
H         65.75734      -18.70055      -39.62960
H         65.51583      -19.81118      -41.85953
H         65.51583      -21.39207      -41.07213
H         67.78414      -20.91913      -40.12433
H         67.78388      -19.33912      -40.91379
H         67.54155      -20.45381      -43.14237
H         67.54377      -22.03311      -42.35174
H         69.81191      -21.55622      -41.40662
H         69.80989      -19.97777      -42.19843
H         69.56905      -21.09477      -44.42495
H         69.56933      -22.67356      -43.63354
H         71.83711      -22.20002      -42.68823
H         71.83725      -20.62034      -43.47773
H         71.59578      -21.73411      -45.70602
H         71.59600      -23.31395      -44.91643
H         73.86413      -22.84060      -43.97038
H         73.86414      -21.25930      -44.75894
H         73.62103      -22.37505      -46.98857
H         73.62318      -23.95444      -46.19821
H         75.89166      -23.47887      -45.25304
H         75.88941      -21.89928      -46.04301
H         75.64792      -23.01387      -48.27097
H         75.65028      -24.59350      -47.48097
H         77.91826      -24.11872      -46.53655
H         77.91622      -22.53824      -47.32473
H         77.67570      -23.64912      -49.55379
H         77.67579      -25.23013      -48.76681
H         79.94412      -24.75826      -47.81959
H         79.94379      -23.17733      -48.60684
H         79.70158      -24.28861      -50.83691
H         79.70367      -25.86919      -50.04884
H         81.97215      -25.39344      -49.10276
H         81.96973      -23.81393      -49.89276
H         81.72917      -24.92872      -52.12087
H         81.73159      -26.50823      -51.33092
H         84.00041      -26.03315      -50.38629
H         83.99806      -24.45273      -51.17437
H         83.76080      -25.56492      -53.40355
H         83.76311      -27.14476      -52.61618
H         86.03351      -26.67212      -51.67210
H         86.03118      -25.09035      -52.45805
H         85.79207      -26.19985      -54.68951
H         85.79439      -27.78076      -53.90420
H         88.07785      -27.31849      -52.98008
H         88.07544      -25.73722      -53.76556
H         87.85759      -28.43150      -55.20971
H         89.29947      -27.40224      -55.13675
H         87.85523      -26.84195      -55.99929
