272

C          1.01110       -0.00072       -0.01363
C          2.52878        0.00400       -0.02312
C          3.06255        1.03785       -1.00845
C          4.58564        1.04495       -1.01850
C          5.10664        2.07957       -2.00750
C          6.62740        2.08763       -2.01822
C          7.14194        3.12050       -3.00792
C          8.66141        3.12602       -3.01693
C          9.17446        4.15872       -4.00509
C         10.69273        4.16301       -4.01110
C         11.20485        5.19620       -4.99791
C         12.72223        5.20051       -5.00203
C         13.23354        6.23351       -5.98898
C         14.75055        6.23714       -5.99264
C         15.26132        7.26988       -6.97950
C         16.77814        7.27205       -6.98423
C         17.28837        8.30451       -7.97120
C         18.80507        8.30570       -7.97721
C         19.31505        9.33692       -8.96566
C         20.83167        9.33718       -8.97250
C         21.34182       10.36687       -9.96250
C         22.85850       10.36753       -9.96874
C         23.36854       11.39612      -10.95973
C         24.88518       11.39795      -10.96469
C         25.39526       12.42734      -11.95483
C         26.91186       12.42936      -11.95963
C         27.42176       13.45806      -12.95060
C         28.93834       13.46039      -12.95544
C         29.44834       14.48972      -13.94548
C         30.96481       14.49281      -13.94883
C         31.47519       15.52207      -14.93872
C         32.99177       15.52718      -14.94027
C         33.50168       16.55702      -15.92985
C         35.01812       16.56307      -15.93046
C         35.52782       17.59356      -16.91978
C         37.04482       17.59857      -16.91929
C         37.55354       18.63054      -17.91035
C         39.07045       18.63488      -17.91053
C         39.58087       19.66605      -18.89819
C         41.09845       19.67051      -18.90261
C         41.60778       20.69919      -19.89337
C         43.12455       20.70355      -19.89567
C         43.63495       21.73163      -20.88690
C         45.15176       21.73615      -20.88893
C         45.66195       22.76474      -21.87994
C         47.17862       22.76857      -21.88315
C         47.68845       23.79854      -22.87289
C         49.20510       23.80189      -22.87673
C         49.71497       24.83322      -23.86500
C         51.23159       24.83488      -23.87008
C         51.74182       25.86458      -24.85979
C         53.25843       25.86559      -24.86513
C         53.76855       26.89474      -25.85542
C         55.28509       26.89641      -25.86029
C         55.79504       27.92614      -26.85007
C         57.31163       27.92784      -26.85511
C         57.82134       28.95785      -27.84471
C         59.33793       28.95889      -27.85068
C         59.84778       29.98983      -28.83908
C         61.36435       29.99033      -28.84531
C         61.87452       31.02255      -29.83247
C         63.39124       31.02276      -29.83835
C         63.90206       32.05629      -30.82374
C         65.41892       32.05779      -30.82906
C         65.92917       33.09195      -31.81421
C         67.44584       33.09381      -31.81966
C         67.95550       34.12788      -32.80571
C         69.47220       34.12923      -32.81189
C         69.98214       35.16313      -33.79750
C         71.49887       35.16391      -33.80340
C         72.00943       36.19796      -34.78841
C         73.52608       36.19920      -34.79331
C         74.03590       37.23323      -35.77858
C         75.55283       37.23505      -35.78357
C         76.06272       38.26808      -36.77005
C         77.57931       38.26887      -36.77699
C         78.08969       39.30124      -37.76450
C         79.60668       39.30222      -37.77108
C         80.11752       40.33373      -38.75934
C         81.63493       40.33639      -38.76523
C         82.14664       41.36917      -39.75249
C         83.66437       41.37331      -39.75924
C         84.17697       42.40752      -40.74496
C         85.69701       42.41420      -40.75514
C         86.21082       43.44851      -41.74195
C         87.73113       43.45588      -41.75198
C         88.25319       44.49097      -42.73853
C         89.77758       44.50073      -42.74729
C         90.31080       45.53416      -43.73257
C         91.82853       45.54144      -43.73999
H          0.63894       -0.74545        0.69595
H          0.61592       -0.24428       -1.00504
H          0.62022        0.97854        0.28059
H          2.89513       -0.99296       -0.29432
H          2.89933        0.22386        0.98484
H          2.69224        2.03435       -0.73787
H          2.68935        0.81732       -2.01613
H          4.96209        0.05142       -1.29149
H          4.96483        1.27073       -0.01427
H          4.73342        3.07491       -1.73678
H          4.73095        1.85551       -3.01348
H          7.00425        1.09400       -2.29004
H          7.00669        2.31497       -1.01439
H          6.76856        4.11596       -2.73755
H          6.76552        2.89517       -4.01334
H          9.03702        2.13192       -3.28900
H          9.04003        3.35210       -2.01249
H          8.80027        5.15367       -3.73420
H          8.79850        3.93343       -5.01069
H         11.06850        3.16895       -4.28322
H         11.06992        4.38840       -3.00594
H         10.82964        6.19072       -4.72665
H         10.82945        4.97099       -6.00378
H         13.09858        4.20654       -5.27353
H         13.09855        5.42658       -3.99669
H         12.85808        7.22797       -5.71785
H         12.85793        6.00794       -6.99470
H         15.12636        5.24289       -6.26404
H         15.12665        6.46299       -4.98718
H         14.88672        8.26443       -6.70762
H         14.88463        7.04485       -7.98491
H         17.15270        6.27749       -7.25617
H         17.15517        7.49715       -5.97896
H         16.91461        9.29927       -7.69877
H         16.91053        8.07984       -8.97629
H         19.17887        7.31068       -8.24861
H         19.18311        8.53159       -6.97253
H         18.94204       10.33210       -8.69401
H         18.93642        9.11149       -9.97029
H         21.20496        8.34169       -9.24276
H         21.21031        9.56417       -7.96823
H         20.96843       11.36244       -9.69265
H         20.96366       10.13955      -10.96684
H         23.23205        9.37174      -10.23758
H         23.23655       10.59583       -8.96455
H         22.99409       12.39178      -10.69162
H         22.99140       11.16710      -11.96409
H         25.25960       10.40249      -11.23360
H         25.26232       11.62615       -9.96014
H         25.02071       13.42275      -11.68594
H         25.01821       12.19910      -12.95938
H         27.28657       11.43379      -12.22764
H         27.28884       12.65847      -10.95521
H         27.04709       14.45363      -12.68249
H         27.04493       13.22894      -13.95506
H         29.31326       12.46511      -13.22435
H         29.31542       13.68876      -11.95084
H         29.07291       15.48515      -13.67765
H         29.07243       14.26098      -14.95064
H         31.34069       13.49752      -14.21686
H         31.34073       14.72189      -12.94379
H         31.09799       16.51730      -14.67152
H         31.10069       15.29225      -15.94412
H         33.36905       14.53237      -15.20762
H         33.36609       15.75687      -13.93499
H         33.12369       17.55168      -15.66293
H         33.12806       16.32686      -16.93527
H         35.39631       15.56860      -16.19767
H         35.39185       16.79301      -14.92498
H         35.15000       18.58797      -16.65228
H         35.15434       17.36377      -17.92524
H         37.42216       16.60470      -17.18817
H         37.41803       17.82864      -15.91428
H         37.17668       19.62434      -17.64073
H         37.17556       18.39808      -18.91003
H         39.44823       17.64077      -18.17741
H         39.44508       18.86544      -16.90508
H         39.20382       20.65974      -18.63272
H         39.20605       19.43526      -19.90473
H         41.47440       18.67543      -19.16931
H         41.47279       19.90057      -17.89745
H         41.23127       21.69440      -19.62673
H         41.23293       20.46887      -20.89837
H         43.50115       19.70814      -20.16192
H         43.49942       20.93432      -18.89091
H         43.25838       22.72704      -20.62095
H         43.26040       21.50073      -21.89181
H         45.52850       20.74090      -21.15531
H         45.52654       21.96686      -19.88408
H         45.28583       23.76006      -21.61290
H         45.28644       22.53466      -22.88467
H         47.55465       21.77359      -22.15158
H         47.55434       22.99744      -20.87820
H         47.31275       24.79355      -22.60427
H         47.31242       23.56991      -23.87776
H         49.58063       22.80718      -23.14680
H         49.58139       24.02899      -21.87159
H         49.34062       25.82813      -23.59408
H         49.33767       24.60698      -24.86992
H         51.60589       23.83956      -24.13960
H         51.60883       25.06249      -22.86545
H         51.36793       26.86006      -24.59028
H         51.36438       25.63708      -25.86439
H         53.63236       24.87002      -25.13429
H         53.63600       26.09350      -23.86068
H         53.39417       27.89026      -25.58672
H         53.39147       26.66637      -26.85994
H         55.65954       25.90106      -26.12958
H         55.66230       27.12429      -24.85569
H         55.42073       28.92149      -26.58070
H         55.41784       27.69839      -27.85470
H         57.68601       26.93254      -27.12462
H         57.68886       28.15544      -25.85046
H         57.44758       29.95319      -27.57438
H         57.44329       28.73089      -28.84920
H         59.71157       27.96367      -28.12158
H         59.71560       29.18518      -26.84591
H         59.47432       30.98489      -28.56762
H         59.46954       29.76416      -29.84388
H         61.73770       28.99548      -29.11769
H         61.74248       30.21496      -27.84031
H         61.50120       32.01739      -29.55986
H         61.49635       30.79813      -30.83748
H         63.76423       30.02808      -30.11214
H         63.76899       31.24566      -28.83286
H         63.52826       33.05069      -30.55010
H         63.52461       31.83303      -31.82928
H         65.79277       31.06339      -31.10303
H         65.79624       32.28048      -29.82339
H         65.55504       34.08597      -31.54040
H         65.55183       32.86850      -32.81966
H         67.82038       32.09979      -32.09341
H         67.82361       33.31759      -30.81441
H         67.58154       35.12204      -32.53195
H         67.57768       33.90421      -33.81089
H         69.84592       33.13495      -33.08597
H         69.85029       34.35233      -31.80661
H         69.60852       36.15744      -33.52344
H         69.60416       34.94009      -34.80290
H         71.87229       34.16957      -34.07763
H         71.87659       35.38648      -32.79780
H         71.63517       37.19213      -34.51465
H         71.63219       35.97475      -35.79408
H         73.90002       35.20510      -35.06730
H         73.90334       36.42231      -33.78780
H         73.66212       38.22747      -35.50482
H         73.65893       37.01005      -36.78403
H         75.92743       36.24077      -36.05654
H         75.93024       37.45964      -34.77868
H         75.68934       39.26286      -36.49650
H         75.68417       38.04470      -37.77527
H         77.95245       37.27392      -37.04956
H         77.95779       38.49312      -35.77189
H         77.71595       40.29579      -37.49181
H         77.71116       39.07619      -38.76914
H         79.97998       38.30700      -38.04256
H         79.98451       39.52756      -36.76610
H         79.74271       41.32845      -38.48823
H         79.73990       40.10746      -39.76416
H         82.00892       39.34156      -39.03690
H         82.01166       40.56129      -37.75980
H         81.77126       42.36338      -39.48028
H         81.76892       41.14378      -40.75748
H         84.03887       40.37884      -40.03222
H         84.04134       41.59655      -38.75338
H         83.80253       43.40333      -40.47167
H         83.79832       42.18495      -41.75094
H         86.06914       41.41785      -41.02821
H         86.07307       42.63531      -39.74873
H         85.83526       44.44162      -41.46763
H         85.83272       43.22350      -42.74649
H         88.10584       42.46080      -42.02428
H         88.10814       43.67842      -40.74543
H         87.87623       45.48518      -42.46650
H         87.87686       44.26621      -43.74468
H         90.14905       43.50440      -43.01642
H         90.14881       44.72223      -41.73895
H         89.94261       46.53096      -43.46330
H         89.94241       45.31258      -44.74082
H         92.22207       45.78679      -42.74821
H         92.20077       46.28628      -44.45016
H         92.22152       44.56240      -44.03267
