293

C          0.99959        0.23673        0.07648
C          2.51718        0.22728        0.08038
C          3.04697       -0.80859        1.06398
C          4.56908       -0.81857        1.07111
C          5.08580       -1.85476        2.05786
C          6.60533       -1.86347        2.06367
C          7.11855       -2.89997        3.04794
C          8.63650       -2.90615        3.05171
C          9.14864       -3.94077        4.03670
C         10.66590       -3.94572        4.03890
C         11.17712       -4.98003        5.02383
C         12.69476       -4.98392        5.02809
C         13.20392       -6.01763        6.01358
C         14.72273       -6.02106        6.01583
C         15.23171       -7.05489        7.00405
C         16.74859       -7.05939        7.00531
C         17.25852       -8.09313        7.99222
C         18.77560       -8.09725        7.99402
C         19.28577       -9.13041        8.98051
C         20.80251       -9.13632        8.98101
C         21.31259      -10.17068        9.96600
C         22.82924      -10.17536        9.96804
C         23.33930      -11.20973       10.95300
C         24.85595      -11.21578       10.95361
C         25.36597      -12.25154       11.93713
C         26.88261      -12.25760       11.93773
C         27.39264      -13.29197       12.92270
C         28.90927      -13.29799       12.92329
C         29.41930      -14.33238       13.90826
C         30.93593      -14.33981       13.90739
C         31.44594      -15.37557       14.89089
C         32.96256      -15.38301       14.89000
C         33.47258      -16.41737       15.87498
C         34.98920      -16.42341       15.87556
C         35.49923      -17.45639       16.86198
C         37.01586      -17.46240       16.86259
C         37.52586      -18.49541       17.84902
C         39.04251      -18.50004       17.85103
C         39.55254      -19.53300       18.83747
C         41.06919      -19.53902       18.83803
C         41.57919      -20.57062       19.82593
C         43.09582      -20.57526       19.82797
C         43.60585      -21.60682       20.81588
C         45.12249      -21.61007       20.81937
C         45.63251      -22.64025       21.80871
C         47.14915      -22.64349       21.81221
C         47.65918      -23.67366       22.80156
C         49.17581      -23.67690       22.80506
C         49.68584      -24.70570       23.79584
C         51.20247      -24.70894       23.79934
C         51.71249      -25.73773       24.79013
C         53.22913      -25.74093       24.79366
C         53.73916      -26.76834       25.78588
C         55.25579      -26.77019       25.79083
C         55.76582      -27.79892       26.78168
C         57.28245      -27.80079       26.78659
C         57.79248      -28.82957       27.77739
C         59.30912      -28.83280       27.78089
C         59.81915      -29.86159       28.77169
C         61.33578      -29.86484       28.77517
C         61.84581      -30.89363       29.76596
C         63.36244      -30.89826       29.76801
C         63.87247      -31.92704       30.75881
C         65.38910      -31.93029       30.76229
C         65.89913      -32.95767       31.75454
C         67.41577      -32.96091       31.75803
C         67.92580      -33.98828       32.75029
C         69.44243      -33.99152       32.75379
C         69.95247      -35.01754       33.74746
C         71.46912      -35.02075       33.75099
C         71.97914      -36.04672       34.74468
C         73.49578      -36.04859       34.74961
C         74.00585      -37.07595       35.74189
C         75.52248      -37.07779       35.74684
C         76.03254      -38.10380       36.74052
C         77.54918      -38.10564       36.74552
C         78.05923      -39.13163       37.73923
C         79.57589      -39.13212       37.74566
C         80.08591      -40.15811       38.73938
C         81.60254      -40.15863       38.74592
C         82.11247      -41.18466       39.73963
C         83.62911      -41.18366       39.74741
C         84.13925      -42.21093       40.73970
C         85.65597      -42.21137       40.74601
C         86.16636      -43.23880       41.73821
C         87.68306      -43.23940       41.74480
C         88.19352      -44.26818       42.73584
C         89.71059      -44.26810       42.74439
C         90.22130      -45.29721       43.73555
C         91.73884      -45.29930       43.74346
C         92.25134      -46.32730       44.73627
C         93.77064      -46.32974       44.74462
C         94.28783      -47.35853       45.73546
C         95.80868      -47.36346       45.74626
C         96.32790      -48.39224       46.73989
C         97.85177      -48.40593       46.75946
C         98.36542      -49.43306       47.75137
H          0.62598        0.98194       -0.63115
H          0.61050        0.48062        1.07003
H          0.60626       -0.74218       -0.21552
H          2.88893        1.22257        0.35098
H          2.88476        0.00554       -0.92842
H          2.67418       -1.80415        0.79324
H          2.67616       -0.58833        2.07264
H          4.94836        0.17359        1.34454
H          4.94631       -1.04470        0.06629
H          4.71055       -2.84928        1.78700
H          4.71289       -1.63103        3.06502
H          6.98395       -0.87116        2.33805
H          6.98175       -2.08776        1.05800
H          6.74246       -3.89384        2.77518
H          6.74471       -2.67713        4.05508
H          9.01374       -1.91282        3.32476
H          9.01253       -3.13035        2.04576
H          8.77256       -4.93473        3.76477
H          8.77468       -3.71637        5.04331
H         11.04311       -2.95222        4.31116
H         11.04023       -4.17054        3.03253
H         10.80205       -5.97415        4.75099
H         10.80147       -4.75649        6.02992
H         13.07024       -3.98969        5.30110
H         13.07074       -5.20761        4.02192
H         12.82968       -7.01154        5.74066
H         12.82948       -5.79264        7.01895
H         15.09703       -5.02614        6.28891
H         15.09640       -6.24551        5.01429
H         14.85532       -8.04829        6.73140
H         14.85753       -6.82949        8.00869
H         17.12583       -6.06602        7.27627
H         17.12367       -7.28632        5.99997
H         16.88197       -9.08669        7.72176
H         16.88432       -7.86620        8.99818
H         19.15243       -7.10349        8.26489
H         19.15013       -8.32354        6.98812
H         18.90789      -10.12417        8.71052
H         18.91228       -8.90329        9.98659
H         21.18038       -8.14288        9.25242
H         21.17611       -9.36194        7.97457
H         20.93578      -11.16432        9.69370
H         20.93784       -9.94593       10.97219
H         23.20608       -9.18175       10.24034
H         23.20401      -10.40012        8.96183
H         22.96135      -12.20315       10.68155
H         22.96569      -10.98415       11.95946
H         25.23390      -10.22274       11.22645
H         25.22961      -11.43998        9.94687
H         24.98802      -13.24458       11.66429
H         24.99232      -12.02735       12.94388
H         27.26060      -11.26420       12.20920
H         27.25622      -12.48318       10.93127
H         27.01466      -14.28538       12.65125
H         27.01904      -13.06638       13.92915
H         29.28729      -12.30461       13.19475
H         29.28287      -13.52361       11.91684
H         29.04017      -15.32558       13.63763
H         29.04685      -14.10598       14.91496
H         31.31505      -13.34698       14.17938
H         31.30840      -14.56483       12.90039
H         31.06682      -16.36840       14.61890
H         31.07347      -15.15055       15.89790
H         33.34169      -14.38981       15.16065
H         33.33502      -15.60940       13.88332
H         33.09459      -17.41078       15.60355
H         33.09898      -16.19175       16.88143
H         35.36720      -15.42962       16.14564
H         35.36280      -16.65040       14.86943
H         35.12125      -18.45018       16.59195
H         35.12562      -17.22935       17.86811
H         37.39380      -16.46860       17.13263
H         37.38950      -17.68943       15.85647
H         37.14905      -19.48937       17.57813
H         37.15112      -18.26918       18.85491
H         39.41933      -17.50602       18.12193
H         39.41728      -18.72622       16.84516
H         39.17460      -20.52681       18.56746
H         39.17888      -19.30594       19.84358
H         41.44713      -18.54484       19.10673
H         41.44278      -19.76745       17.83227
H         41.20236      -21.56500       19.55648
H         41.20444      -20.34298       20.83151
H         43.47260      -19.58084       20.09746
H         43.47064      -20.80286       18.82244
H         43.23021      -22.60143       20.54560
H         43.22990      -21.38000       21.82118
H         45.49813      -20.61508       21.08830
H         45.49843      -21.83826       19.81438
H         45.25688      -23.63524       21.53982
H         45.25657      -22.41202       22.81370
H         47.52477      -21.64849       22.08111
H         47.52511      -22.87170       20.80723
H         47.28356      -24.66867       22.53268
H         47.28320      -23.44542       23.80653
H         49.55146      -22.68154       23.07257
H         49.55175      -23.90652       21.80039
H         49.31019      -25.70106       23.52836
H         49.30989      -24.47604       24.80051
H         51.57810      -23.71356       24.06684
H         51.57843      -24.93857       22.79469
H         51.33688      -26.73310       24.52268
H         51.33653      -25.50804       25.79479
H         53.60477      -24.74520       25.05975
H         53.60508      -25.97199       23.78932
H         53.36465      -27.76428       25.51896
H         53.36208      -26.53812       26.79000
H         55.63023      -25.77458       26.05915
H         55.63293      -26.99901       24.78644
H         55.39137      -28.79453       26.51332
H         55.38869      -27.57013       27.78606
H         57.65694      -26.80521       27.05491
H         57.65955      -28.02961       25.78217
H         57.41688      -29.82496       27.50990
H         57.41650      -28.59993       28.78204
H         59.68475      -27.83743       28.04837
H         59.68507      -29.06246       26.77623
H         59.44351      -30.85696       28.50419
H         59.44320      -29.63196       29.77635
H         61.71144      -28.86947       29.04266
H         61.71171      -30.09448       27.77050
H         61.46903      -31.88879       29.49931
H         61.47101      -30.66315       30.77086
H         63.73922      -29.90309       30.03466
H         63.73725      -31.12873       28.76311
H         63.49683      -32.92241       30.49134
H         63.49653      -31.69738       31.76347
H         65.76476      -30.93455       31.02840
H         65.76504      -32.16132       29.75795
H         65.52349      -33.95341       31.48847
H         65.52319      -32.72660       32.75888
H         67.79140      -31.96515       32.02412
H         67.79172      -33.19197       30.75370
H         67.55017      -34.98404       32.48423
H         67.54983      -33.75719       33.75462
H         69.81809      -32.99541       33.01848
H         69.81836      -34.22398       31.74977
H         69.57681      -36.01363       33.48281
H         69.57652      -34.78501       34.75148
H         71.84472      -34.02460       34.01566
H         71.84506      -35.25322       32.74699
H         71.60463      -37.04304       34.47916
H         71.60206      -35.81508       35.74846
H         73.87021      -35.05260       35.01653
H         73.87292      -36.27882       33.74555
H         73.63140      -38.07193       35.47500
H         73.62870      -36.84568       36.74597
H         75.89696      -36.08145       36.01236
H         75.89958      -37.30942       34.74306
H         75.65804      -39.10012       36.47503
H         75.65541      -37.87210       37.74428
H         77.92362      -37.10929       37.01104
H         77.92634      -38.33729       35.74177
H         77.68591      -40.12818       37.47289
H         77.68094      -38.90080       38.74273
H         79.94918      -38.13556       38.01205
H         79.95421      -39.36292       36.74216
H         79.71255      -41.15466       38.47313
H         79.70768      -39.92716       39.74287
H         81.97580      -39.16210       39.01239
H         81.98106      -40.38941       37.74247
H         81.74033      -42.18143       39.47244
H         81.73303      -40.95469       40.74290
H         84.00116      -40.18721       40.01592
H         84.00849      -41.41222       38.74379
H         83.76602      -43.20719       40.47190
H         83.76094      -41.98157       41.74346
H         86.02915      -41.21512       41.01368
H         86.03414      -42.44073       39.74211
H         85.79284      -44.23491       41.47044
H         85.78785      -43.00935       42.74203
H         88.05615      -42.24349       42.01385
H         88.06124      -43.46732       40.74060
H         87.82138      -45.26434       42.46520
H         87.81327      -44.04142       43.73934
H         90.08198      -43.27141       43.01557
H         90.09025      -44.49365       41.74084
H         89.84724      -46.29263       43.46540
H         89.84203      -45.06946       44.73926
H         92.11163      -44.30285       44.01090
H         92.11657      -45.52825       42.73933
H         91.87679      -47.32295       44.46816
H         91.87188      -46.09743       45.73959
H         94.14149      -45.33267       45.01243
H         94.14658      -46.55638       43.73926
H         93.91257      -48.35375       45.46615
H         93.90762      -47.13016       46.73904
H         96.17981      -46.36537       46.01187
H         96.18483      -47.59094       44.74043
H         95.95011      -49.38610       46.47019
H         95.94495      -48.16161       47.74111
H         98.22878      -47.41294       47.03230
H         98.23610      -48.63754       45.76036
H         98.01388      -49.20671       48.76282
H         99.45877      -49.43671       47.76024
H         98.02022      -50.43678       47.48451
