299

C          1.01696        0.02435        0.07388
C          2.53365        0.01769        0.06708
C          3.06198       -1.31304       -0.45223
C          4.58332       -1.32017       -0.46136
C          5.09927       -2.65155       -0.98299
C          6.61700       -2.65746       -0.99158
C          7.12936       -3.98908       -1.51128
C          8.64666       -3.99242       -1.51886
C          9.15693       -5.32287       -2.04018
C         10.67389       -5.32618       -2.04787
C         11.18478       -6.65671       -2.56910
C         12.70193       -6.65968       -2.57453
C         13.21246       -7.98964       -3.09551
C         14.72933       -7.99272       -3.10088
C         15.23950       -9.32333       -3.62009
C         16.75615       -9.32564       -3.62733
C         17.26621      -10.65625       -4.14648
C         18.78285      -10.65857       -4.15373
C         19.29283      -11.98994       -4.67104
C         20.80940      -11.99282       -4.67656
C         21.31990      -13.32350       -5.19538
C         22.83641      -13.32728       -5.19911
C         23.34625      -14.65868       -5.71631
C         24.86288      -14.66162       -5.72167
C         25.37303      -15.99201       -6.24059
C         26.88899      -15.99670       -6.24547
C         27.39921      -17.32637       -6.76403
C         28.91598      -17.32998       -6.76912
C         29.42615      -18.65966       -7.28984
C         30.94272      -18.66353       -7.29360
C         31.45278      -19.99402       -7.81252
C         32.96930      -19.99858       -7.81438
C         33.47937      -21.32941       -8.33318
C         34.99598      -21.33447       -8.33319
C         35.50613      -22.66569       -8.85025
C         37.02258      -22.67098       -8.85023
C         37.53320      -24.00265       -9.36663
C         39.04953      -24.00729       -9.36706
C         39.55921      -25.33975       -9.88181
C         41.07615      -25.34421       -9.88291
C         41.58656      -26.67565      -10.39917
C         43.10292      -26.68026      -10.40114
C         43.61304      -28.01156      -10.91808
C         45.12984      -28.01595      -10.92025
C         45.63947      -29.34845      -11.43529
C         47.15618      -29.35203      -11.43893
C         47.66612      -30.68432      -11.95414
C         49.18292      -30.68762      -11.95813
C         49.69257      -32.02042      -12.47285
C         51.20926      -32.02478      -12.47494
C         51.71945      -33.35674      -12.99006
C         53.23614      -33.36103      -12.99174
C         53.74636      -34.69282      -13.50688
C         55.26237      -34.69893      -13.50735
C         55.77379      -36.02953      -14.02328
C         57.28953      -36.03401      -14.02583
C         57.79968      -37.36531      -14.54277
C         59.31642      -37.36968      -14.54489
C         59.82611      -38.70222      -15.05996
C         61.34279      -38.70582      -15.06352
C         61.85297      -40.03776      -15.57868
C         63.36950      -40.04159      -15.58245
C         63.87972      -41.37291      -16.09927
C         65.39614      -41.37673      -16.10318
C         65.90632      -42.70706      -16.62206
C         67.42249      -42.71239      -16.62431
C         67.93267      -44.04208      -17.14481
C         69.44954      -44.04606      -17.14675
C         69.95923      -45.37646      -17.66745
C         71.47576      -45.38169      -17.66758
C         71.98664      -46.71094      -18.18801
C         73.50278      -46.71643      -18.18815
C         74.01273      -48.04717      -18.70724
C         75.52944      -48.05148      -18.70893
C         76.03964      -49.38132      -19.22970
C         77.55618      -49.38576      -19.23167
C         78.06582      -50.71591      -19.75236
C         79.58262      -50.72019      -19.75424
C         80.09257      -52.05028      -20.27504
C         81.60938      -52.05471      -20.27689
C         82.11938      -53.38467      -20.79785
C         83.63602      -53.38912      -20.79947
C         84.14604      -54.71899      -21.32054
C         85.66269      -54.72348      -21.32213
C         86.17271      -56.05268      -21.84503
C         87.68933      -56.05796      -21.84480
C         88.19953      -57.38705      -22.36769
C         89.71626      -57.39326      -22.36789
C         90.22746      -58.72092      -22.89235
C         91.74345      -58.72709      -22.89463
C         92.25521      -60.05503      -23.41922
C         93.77184      -60.06036      -23.41895
C         94.28399      -61.38960      -23.94200
C         95.80234      -61.39629      -23.94219
C         96.31654      -62.72652      -24.46343
C         97.83658      -62.73646      -24.46497
C         98.35315      -64.06818      -24.98885
C         99.87600      -64.08936      -24.99487
C        100.38975      -65.41737      -25.51733
H          0.64409        0.98144        0.44732
H          0.62854       -0.77198        0.71705
H          0.62397       -0.12853       -0.93650
H          2.90615        0.19579        1.08266
H          2.90149        0.83610       -0.56282
H          2.68684       -1.49276       -1.46730
H          2.69371       -2.13206        0.17785
H          4.96443       -1.14684        0.55247
H          4.95762       -0.50500       -1.09265
H          4.72187       -2.82781       -1.99790
H          4.72864       -3.46962       -0.35296
H          6.99893       -2.48280        0.02192
H          6.99196       -1.84311       -1.62397
H          6.75099       -4.16591       -2.52604
H          6.75788       -4.80587       -0.87953
H          9.02733       -3.81919       -0.50486
H          9.02063       -3.17720       -2.15022
H          8.77818       -5.49842       -3.05518
H          8.78508       -6.14054       -1.40958
H         11.05401       -5.15223       -1.03362
H         11.04716       -4.51036       -2.67926
H         10.80653       -6.82983       -3.58375
H         10.81140       -7.47272       -1.93871
H         13.08026       -6.48579       -1.55965
H         13.07574       -5.84311       -3.20442
H         12.83468       -8.16409       -4.11066
H         12.83903       -8.80659       -2.46572
H         15.10749       -7.81723       -2.08614
H         15.10283       -7.17683       -3.73197
H         14.86033       -9.49942       -4.63431
H         14.86718      -10.13906       -2.98813
H         17.13541       -9.14956       -2.61315
H         17.12852       -8.50997       -4.25930
H         16.88702      -10.83245       -5.16068
H         16.89389      -11.47195       -3.51448
H         19.16211      -10.48105       -3.13980
H         19.15519       -9.84375       -4.78684
H         18.91470      -12.16681       -5.68547
H         18.91950      -12.80488       -4.03870
H         21.18741      -11.81739       -3.66169
H         21.18303      -11.17721       -5.30762
H         20.94265      -13.49846       -6.21083
H         20.94504      -14.13933       -4.56518
H         23.21326      -13.15106       -4.18405
H         23.21074      -12.51227       -5.83053
H         22.96813      -14.83559       -6.73078
H         22.97277      -15.47356       -5.08396
H         25.24093      -14.48607       -4.70694
H         25.23638      -13.84594       -6.35292
H         24.99589      -16.16708       -7.25604
H         24.99838      -16.80814       -5.61050
H         27.26646      -15.82257       -5.22884
H         27.26416      -15.17933       -6.87354
H         27.02261      -17.49936       -7.78084
H         27.02493      -18.14266       -6.13614
H         29.29312      -17.15624       -5.75336
H         29.29079      -16.51296       -7.39803
H         29.04929      -18.83304       -8.30538
H         29.05155      -19.47629       -6.66062
H         31.31977      -18.48847       -6.27812
H         31.31747      -17.84743       -7.92369
H         31.07702      -20.16813       -8.82832
H         31.07713      -20.80996       -7.18299
H         33.34502      -19.82437       -6.79822
H         33.34529      -19.18254       -8.44358
H         33.10492      -21.50261       -9.34962
H         33.10260      -22.14511       -7.70458
H         35.37080      -21.15931       -7.31695
H         35.37307      -20.51902       -8.96277
H         35.13156      -22.84056       -9.86639
H         35.12923      -23.48083       -8.22047
H         37.39740      -22.49583       -7.83393
H         37.39977      -21.85564       -9.47981
H         37.15829      -24.17716      -10.38339
H         37.15588      -24.81731       -8.73746
H         39.42415      -23.83097       -8.35118
H         39.42642      -23.19296       -9.99798
H         39.18487      -25.51579      -10.89826
H         39.18261      -26.15379       -9.25149
H         41.45077      -25.16963       -8.86609
H         41.45308      -24.52946      -10.51201
H         41.21046      -26.85164      -11.41499
H         41.21036      -27.49104       -9.76879
H         43.47858      -26.50481       -9.38549
H         43.47863      -25.86537      -11.03173
H         43.23710      -28.18749      -11.93386
H         43.23706      -28.82683      -10.28766
H         45.50534      -27.83928       -9.90466
H         45.50518      -27.20206      -11.55174
H         45.26258      -29.52614      -12.45009
H         45.26484      -30.16248      -10.80265
H         47.53308      -29.17439      -10.42408
H         47.53075      -28.53806      -12.07150
H         47.28921      -30.86199      -12.96896
H         47.29154      -31.49832      -11.32153
H         49.55971      -30.51023      -10.94295
H         49.55745      -29.87392      -12.59038
H         49.31698      -32.19714      -13.48838
H         49.31709      -32.83429      -11.84127
H         51.58523      -31.84750      -11.45943
H         51.58520      -31.21039      -13.10650
H         51.34371      -33.53373      -14.00541
H         51.34368      -34.17085      -12.35827
H         53.61186      -33.18401      -11.97640
H         53.61195      -32.54689      -13.62354
H         53.37147      -34.86953      -14.52292
H         53.36929      -35.50752      -12.87619
H         55.63740      -34.52340      -12.49078
H         55.63968      -33.88323      -14.13668
H         55.39709      -36.20540      -15.03968
H         55.39698      -36.84481      -13.39347
H         57.66520      -35.85856      -13.01018
H         57.66525      -35.21912      -14.65641
H         57.42373      -37.54123      -15.55855
H         57.42370      -38.18058      -13.91234
H         59.69196      -37.19302      -13.52934
H         59.69181      -36.55580      -15.17642
H         59.44922      -38.87989      -16.07477
H         59.45148      -39.51622      -14.42734
H         61.71974      -38.52805      -14.04877
H         61.71739      -37.89176      -15.69620
H         61.47582      -40.21566      -16.59362
H         61.47824      -40.85206      -14.94626
H         63.74638      -39.86536      -14.56739
H         63.74407      -39.22675      -16.21395
H         63.50250      -41.54934      -17.11465
H         63.50487      -42.18806      -15.46818
H         65.77299      -41.20190      -15.08789
H         65.77078      -40.56098      -16.73356
H         65.53028      -42.88159      -17.63808
H         65.53041      -43.52343      -15.99284
H         67.79850      -42.53913      -15.60790
H         67.79855      -41.89512      -17.25229
H         67.55702      -44.21460      -18.16101
H         67.55696      -44.85868      -16.51659
H         69.82514      -43.87352      -16.13052
H         69.82525      -43.22944      -17.77493
H         69.58478      -45.54828      -18.68418
H         69.58251      -46.19320      -17.04009
H         71.85063      -45.20933      -16.65076
H         71.85299      -44.56449      -18.29479
H         71.61153      -46.88342      -19.20496
H         71.60913      -47.52821      -17.56087
H         73.87741      -46.54301      -17.17178
H         73.87961      -45.90034      -18.81676
H         73.63697      -48.22129      -19.72308
H         73.63693      -48.86316      -18.07779
H         75.90512      -47.87879      -17.69283
H         75.90522      -47.23477      -19.33728
H         75.66366      -49.55424      -20.24596
H         75.66363      -50.19832      -18.60159
H         77.93182      -49.21322      -18.21550
H         77.93184      -48.56910      -19.85990
H         77.69028      -50.88864      -20.76860
H         77.69026      -51.53275      -19.12421
H         79.95846      -50.54759      -18.73814
H         79.95848      -49.90347      -20.38254
H         79.71694      -52.22301      -21.29125
H         79.71691      -52.86713      -19.64686
H         81.98512      -51.88200      -19.26080
H         81.98518      -51.23783      -20.90519
H         81.74366      -53.55735      -21.81392
H         81.74349      -54.20157      -20.16955
H         84.01177      -53.21642      -19.78340
H         84.01183      -52.57216      -21.42776
H         83.77028      -54.89163      -22.33661
H         83.77018      -55.53596      -20.69227
H         86.03831      -54.55221      -20.30578
H         86.03861      -53.90568      -21.94925
H         85.79812      -56.22318      -22.86189
H         85.79566      -56.87061      -21.21877
H         88.06391      -55.88737      -20.82792
H         88.06637      -55.23998      -22.47100
H         87.82481      -57.55751      -23.38466
H         87.82244      -58.20515      -21.74152
H         90.09079      -57.22332      -21.35033
H         90.09325      -56.57357      -22.99275
H         89.85033      -58.89105      -23.90932
H         89.85001      -59.54007      -22.26632
H         92.11876      -58.55616      -21.87741
H         92.11912      -57.90716      -23.52021
H         91.87920      -60.22401      -24.43675
H         91.87664      -60.87405      -22.79379
H         94.14530      -59.88927      -22.40177
H         94.14777      -59.24167      -24.04484
H         93.90839      -61.55988      -24.95891
H         93.90576      -62.20748      -23.31548
H         96.17469      -61.22303      -22.92514
H         96.17722      -60.57794      -24.56893
H         95.93975      -62.89746      -25.47949
H         95.93728      -63.54252      -23.83581
H         98.20907      -62.56463      -23.44767
H         98.21167      -61.91734      -25.09067
H         97.97372      -64.23647      -26.00429
H         97.97117      -64.88348      -24.36216
H        100.25507      -63.92281      -23.97976
H        100.25760      -63.27554      -25.62253
H        100.03894      -66.24294      -24.88960
H        101.48265      -65.42639      -25.51920
H        100.04149      -65.59250      -26.54042
